REMARK  Name = 20628269
REMARK  6 active torsions:
REMARK  status: ('A' for Active; 'I' for Inactive)
REMARK    1  A    between atoms: N_11  and  C_17
REMARK    2  A    between atoms: C_16  and  C_17
REMARK    3  A    between atoms: C_16  and  C_18
REMARK    4  A    between atoms: C_17  and  C_20
REMARK    5  A    between atoms: C_19  and  C_22
REMARK    6  A    between atoms: C_20  and  C_21
REMARK                            x       y       z     vdW  Elec       q    Type
REMARK                         _______ _______ _______ _____ _____    ______ ____
ROOT
ATOM      1  O   UNL     1       2.882   8.418  -1.471  0.00  0.00    +0.000 OA
ATOM      2  N   UNL     1       3.592   6.547  -2.564  0.00  0.00    +0.000 N 
ATOM      3  N   UNL     1       5.910   5.366  -3.560  0.00  0.00    +0.000 N 
ATOM      4  N   UNL     1       6.644   7.144  -4.586  0.00  0.00    +0.000 NA
ATOM      5  N   UNL     1       7.588   6.151  -4.700  0.00  0.00    +0.000 NA
ATOM      6  C   UNL     1       3.587   5.102  -2.820  0.00  0.00    +0.000 C 
ATOM      7  C   UNL     1       5.009   4.541  -2.785  0.00  0.00    +0.000 C 
ATOM      8  C   UNL     1       4.386   7.367  -3.489  0.00  0.00    +0.000 C 
ATOM      9  C   UNL     1       5.642   6.671  -3.881  0.00  0.00    +0.000 A 
ATOM     10  C   UNL     1       2.783   7.206  -1.651  0.00  0.00    +0.000 C 
ATOM     11  C   UNL     1       7.151   5.079  -4.062  0.00  0.00    +0.000 A 
ENDROOT
BRANCH  11  15
ATOM     12  F   UNL     1       7.189   2.921  -3.089  0.00  0.00    +0.000 F 
ATOM     13  F   UNL     1       9.095   3.921  -3.372  0.00  0.00    +0.000 F 
ATOM     14  F   UNL     1       8.001   3.133  -5.092  0.00  0.00    +0.000 F 
ATOM     15  C   UNL     1       7.856   3.780  -3.908  0.00  0.00    +0.000 C 
ENDBRANCH  11  15
BRANCH  10  16
ATOM     16  C   UNL     1       1.764   6.370  -0.888  0.00  0.00    +0.000 C 
BRANCH  16  17
ATOM     17  C   UNL     1       0.825   7.211  -0.002  0.00  0.00    +0.000 C 
BRANCH  17  18
ATOM     18  N   UNL     1      -0.016   6.275   0.775  0.00  0.00    +0.000 NA
ATOM     19  H   UNL     1      -0.759   5.904   0.181  0.00  0.00    +0.000 HD
ATOM     20  H   UNL     1      -0.507   6.804   1.500  0.00  0.00    +0.000 HD
ENDBRANCH  17  18
BRANCH  17  21
ATOM     21  C   UNL     1      -0.046   8.182  -0.841  0.00  0.00    +0.000 C 
BRANCH  21  24
ATOM     22  F   UNL     1      -4.609   9.738  -0.091  0.00  0.00    +0.000 F 
ATOM     23  F   UNL     1      -3.772  11.424   1.902  0.00  0.00    +0.000 F 
ATOM     24  C   UNL     1      -1.043   9.010  -0.061  0.00  0.00    +0.000 A 
ATOM     25  C   UNL     1      -2.403   8.971  -0.406  0.00  0.00    +0.000 A 
ATOM     26  C   UNL     1      -0.624   9.882   0.958  0.00  0.00    +0.000 A 
ATOM     27  C   UNL     1      -3.316   9.781   0.262  0.00  0.00    +0.000 A 
ATOM     28  C   UNL     1      -1.548  10.690   1.625  0.00  0.00    +0.000 A 
ATOM     29  C   UNL     1      -2.892  10.636   1.270  0.00  0.00    +0.000 A 
ENDBRANCH  21  24
ENDBRANCH  17  21
ENDBRANCH  16  17
ENDBRANCH  10  16
TORSDOF 6
