REMARK  Name = 11441300
REMARK  5 active torsions:
REMARK  status: ('A' for Active; 'I' for Inactive)
REMARK    1  A    between atoms: N_7  and  C_13
REMARK    2  A    between atoms: C_13  and  C_14
REMARK    3  A    between atoms: C_13  and  C_17
REMARK    4  A    between atoms: C_14  and  C_15
REMARK    5  A    between atoms: C_17  and  C_18
REMARK                            x       y       z     vdW  Elec       q    Type
REMARK                         _______ _______ _______ _____ _____    ______ ____
ROOT
ATOM      1  C   UNL     1       2.011   3.329  -1.274  0.00  0.00    +0.000 C 
ENDROOT
BRANCH   1   2
ATOM      2  N   UNL     1       0.793   4.169  -1.343  0.00  0.00    +0.000 NA
ATOM      3  H   UNL     1       0.836   4.781  -2.157  0.00  0.00    +0.000 HD
ATOM      4  H   UNL     1      -0.024   3.574  -1.488  0.00  0.00    +0.000 HD
ENDBRANCH   1   2
BRANCH   1   5
ATOM      5  C   UNL     1       3.206   4.301  -1.173  0.00  0.00    +0.000 C 
BRANCH   5  14
ATOM      6  O   UNL     1       4.780   2.475  -1.250  0.00  0.00    +0.000 OA
ATOM      7  N   UNL     1       5.669   4.589  -1.299  0.00  0.00    +0.000 N 
ATOM      8  N   UNL     1       7.681   6.086  -0.139  0.00  0.00    +0.000 N 
ATOM      9  N   UNL     1       6.695   8.018  -0.354  0.00  0.00    +0.000 NA
ATOM     10  N   UNL     1       7.850   8.190   0.380  0.00  0.00    +0.000 NA
ATOM     11  C   UNL     1       7.049   4.087  -1.394  0.00  0.00    +0.000 C 
ATOM     12  C   UNL     1       5.525   6.050  -1.420  0.00  0.00    +0.000 C 
ATOM     13  C   UNL     1       7.910   4.665  -0.268  0.00  0.00    +0.000 C 
ATOM     14  C   UNL     1       4.602   3.691  -1.254  0.00  0.00    +0.000 C 
ATOM     15  C   UNL     1       6.594   6.741  -0.651  0.00  0.00    +0.000 A 
ATOM     16  C   UNL     1       8.425   7.014   0.507  0.00  0.00    +0.000 A 
ENDBRANCH   5  14
ENDBRANCH   1   5
BRANCH   1  17
ATOM     17  C   UNL     1       1.912   2.361  -0.068  0.00  0.00    +0.000 C 
BRANCH  17  21
ATOM     18  F   UNL     1       1.239   0.397  -2.053  0.00  0.00    +0.000 F 
ATOM     19  F   UNL     1      -2.151   0.830   2.192  0.00  0.00    +0.000 F 
ATOM     20  F   UNL     1      -2.606  -1.038   0.245  0.00  0.00    +0.000 F 
ATOM     21  C   UNL     1       0.677   1.478  -0.015  0.00  0.00    +0.000 A 
ATOM     22  C   UNL     1       0.414   0.520  -1.005  0.00  0.00    +0.000 A 
ATOM     23  C   UNL     1      -0.213   1.577   1.067  0.00  0.00    +0.000 A 
ATOM     24  C   UNL     1      -1.319   0.729   1.147  0.00  0.00    +0.000 A 
ATOM     25  C   UNL     1      -0.691  -0.327  -0.927  0.00  0.00    +0.000 A 
ATOM     26  C   UNL     1      -1.552  -0.218   0.157  0.00  0.00    +0.000 A 
ENDBRANCH  17  21
ENDBRANCH   1  17
TORSDOF 5
