REMARK  Name = 11238297
REMARK  12 active torsions:
REMARK  status: ('A' for Active; 'I' for Inactive)
REMARK    1  A    between atoms: O_10  and  C_28
REMARK    2  A    between atoms: O_10  and  C_29
REMARK    3  A    between atoms: N_14  and  C_21
REMARK    4  A    between atoms: C_21  and  C_22
REMARK    5  A    between atoms: C_21  and  C_25
REMARK    6  A    between atoms: C_22  and  C_23
REMARK    7  A    between atoms: C_24  and  C_26
REMARK    8  A    between atoms: C_25  and  C_27
REMARK    9  A    between atoms: C_26  and  C_30
REMARK   10  A    between atoms: C_28  and  C_33
REMARK   11  A    between atoms: C_28  and  C_34
REMARK   12  A    between atoms: C_28  and  C_35
REMARK                            x       y       z     vdW  Elec       q    Type
REMARK                         _______ _______ _______ _____ _____    ______ ____
ROOT
ATOM      1  C   UNL     1      -1.664   6.121  -0.151  0.00  0.00    +0.000 C 
ENDROOT
BRANCH   1   3
ATOM      2  O   UNL     1      -1.657   4.401   2.194  0.00  0.00    +0.000 OA
ATOM      3  N   UNL     1      -0.758   6.144   1.025  0.00  0.00    +0.000 N 
ATOM      4  C   UNL     1      -0.898   5.358   2.136  0.00  0.00    +0.000 C 
ATOM      5  H   UNL     1      -0.134   6.932   1.141  0.00  0.00    +0.000 HD
BRANCH   4   6
ATOM      6  O   UNL     1      -0.134   5.827   3.159  0.00  0.00    +0.000 OA
BRANCH   6   7
ATOM      7  C   UNL     1      -0.238   5.232   4.490  0.00  0.00    +0.000 C 
ATOM      8  C   UNL     1       0.237   3.772   4.486  0.00  0.00    +0.000 C 
ATOM      9  C   UNL     1       0.681   6.030   5.439  0.00  0.00    +0.000 C 
ATOM     10  C   UNL     1      -1.665   5.368   5.041  0.00  0.00    +0.000 C 
ENDBRANCH   6   7
ENDBRANCH   4   6
ENDBRANCH   1   3
BRANCH   1  11
ATOM     11  C   UNL     1      -1.472   4.843  -1.010  0.00  0.00    +0.000 C 
BRANCH  11  21
ATOM     12  O   UNL     1      -2.843   5.833  -2.740  0.00  0.00    +0.000 OA
ATOM     13  N   UNL     1      -2.140   3.701  -3.152  0.00  0.00    +0.000 N 
ATOM     14  N   UNL     1      -3.538   1.409  -3.826  0.00  0.00    +0.000 N 
ATOM     15  N   UNL     1      -2.201   0.020  -2.801  0.00  0.00    +0.000 NA
ATOM     16  N   UNL     1      -3.260  -0.685  -3.308  0.00  0.00    +0.000 NA
ATOM     17  C   UNL     1      -2.830   3.658  -4.447  0.00  0.00    +0.000 C 
ATOM     18  C   UNL     1      -4.004   2.672  -4.374  0.00  0.00    +0.000 C 
ATOM     19  C   UNL     1      -1.487   2.443  -2.767  0.00  0.00    +0.000 C 
ATOM     20  C   UNL     1      -2.377   1.290  -3.094  0.00  0.00    +0.000 A 
ATOM     21  C   UNL     1      -2.215   4.849  -2.358  0.00  0.00    +0.000 C 
ATOM     22  C   UNL     1      -4.081   0.154  -3.912  0.00  0.00    +0.000 A 
BRANCH  22  25
ATOM     23  F   UNL     1      -5.953  -1.269  -3.951  0.00  0.00    +0.000 F 
ATOM     24  F   UNL     1      -6.277   0.833  -4.363  0.00  0.00    +0.000 F 
ATOM     25  C   UNL     1      -5.378  -0.187  -4.564  0.00  0.00    +0.000 C 
BRANCH  25  29
ATOM     26  F   UNL     1      -5.674  -1.688  -6.433  0.00  0.00    +0.000 F 
ATOM     27  F   UNL     1      -5.961   0.438  -6.798  0.00  0.00    +0.000 F 
ATOM     28  F   UNL     1      -3.959  -0.341  -6.522  0.00  0.00    +0.000 F 
ATOM     29  C   UNL     1      -5.233  -0.458  -6.073  0.00  0.00    +0.000 C 
ENDBRANCH  25  29
ENDBRANCH  22  25
ENDBRANCH  11  21
ENDBRANCH   1  11
BRANCH   1  30
ATOM     30  C   UNL     1      -3.152   6.312   0.260  0.00  0.00    +0.000 C 
BRANCH  30  34
ATOM     31  F   UNL     1      -2.581   9.012  -0.495  0.00  0.00    +0.000 F 
ATOM     32  F   UNL     1      -5.095   8.293   4.283  0.00  0.00    +0.000 F 
ATOM     33  F   UNL     1      -4.541  10.817   3.379  0.00  0.00    +0.000 F 
ATOM     34  C   UNL     1      -3.456   7.515   1.126  0.00  0.00    +0.000 A 
ATOM     35  C   UNL     1      -3.181   8.818   0.687  0.00  0.00    +0.000 A 
ATOM     36  C   UNL     1      -4.106   7.350   2.360  0.00  0.00    +0.000 A 
ATOM     37  C   UNL     1      -4.463   8.466   3.115  0.00  0.00    +0.000 A 
ATOM     38  C   UNL     1      -3.534   9.933   1.442  0.00  0.00    +0.000 A 
ATOM     39  C   UNL     1      -4.181   9.747   2.656  0.00  0.00    +0.000 A 
ENDBRANCH  30  34
ENDBRANCH   1  30
TORSDOF 9
