REMARK  Name = 24882324
REMARK  8 active torsions:
REMARK  status: ('A' for Active; 'I' for Inactive)
REMARK    1  A    between atoms: N_13  and  C_22
REMARK    2  A    between atoms: C_14  and  C_18
REMARK    3  A    between atoms: C_18  and  C_23
REMARK    4  A    between atoms: C_19  and  C_20
REMARK    5  A    between atoms: C_20  and  C_22
REMARK    6  A    between atoms: C_21  and  C_25
REMARK    7  A    between atoms: C_22  and  C_24
REMARK    8  A    between atoms: C_24  and  C_28
REMARK                            x       y       z     vdW  Elec       q    Type
REMARK                         _______ _______ _______ _____ _____    ______ ____
ROOT
ATOM      1  O   UNL     1       3.618   7.391  -1.699  0.00  0.00    +0.000 OA
ATOM      2  N   UNL     1       2.081   7.717  -3.357  0.00  0.00    +0.000 N 
ATOM      3  N   UNL     1       1.720   7.874  -6.114  0.00  0.00    +0.000 N 
ATOM      4  N   UNL     1       3.526   9.017  -6.528  0.00  0.00    +0.000 NA
ATOM      5  N   UNL     1       2.937   8.689  -7.722  0.00  0.00    +0.000 NA
ATOM      6  C   UNL     1       3.010   8.651  -4.068  0.00  0.00    +0.000 C 
ATOM      7  C   UNL     1       0.723   7.616  -3.898  0.00  0.00    +0.000 C 
ATOM      8  C   UNL     1       2.779   8.540  -5.555  0.00  0.00    +0.000 A 
ATOM      9  C   UNL     1       0.741   7.143  -5.343  0.00  0.00    +0.000 C 
ATOM     10  C   UNL     1       2.502   7.149  -2.164  0.00  0.00    +0.000 C 
ATOM     11  C   UNL     1       1.848   7.983  -7.474  0.00  0.00    +0.000 A 
ENDROOT
BRANCH  11  15
ATOM     12  F   UNL     1      -0.010   6.581  -7.900  0.00  0.00    +0.000 F 
ATOM     13  F   UNL     1       1.550   6.656  -9.408  0.00  0.00    +0.000 F 
ATOM     14  F   UNL     1       0.208   8.359  -9.128  0.00  0.00    +0.000 F 
ATOM     15  C   UNL     1       0.914   7.402  -8.472  0.00  0.00    +0.000 C 
ENDBRANCH  11  15
BRANCH   6  16
ATOM     16  C   UNL     1       2.852  10.115  -3.564  0.00  0.00    +0.000 C 
BRANCH  16  18
ATOM     17  F   UNL     1       6.276  13.698  -6.286  0.00  0.00    +0.000 F 
ATOM     18  C   UNL     1       3.776  11.126  -4.222  0.00  0.00    +0.000 A 
ATOM     19  C   UNL     1       3.246  12.180  -4.986  0.00  0.00    +0.000 A 
ATOM     20  C   UNL     1       5.170  10.999  -4.122  0.00  0.00    +0.000 A 
ATOM     21  C   UNL     1       4.091  13.053  -5.676  0.00  0.00    +0.000 A 
ATOM     22  C   UNL     1       6.013  11.869  -4.819  0.00  0.00    +0.000 A 
ATOM     23  C   UNL     1       5.466  12.881  -5.598  0.00  0.00    +0.000 A 
ENDBRANCH  16  18
ENDBRANCH   6  16
BRANCH  10  24
ATOM     24  C   UNL     1       1.598   6.160  -1.436  0.00  0.00    +0.000 C 
BRANCH  24  25
ATOM     25  C   UNL     1       1.735   4.720  -1.972  0.00  0.00    +0.000 C 
BRANCH  25  26
ATOM     26  N   UNL     1       0.723   3.883  -1.300  0.00  0.00    +0.000 NA
ATOM     27  H   UNL     1       1.031   3.663  -0.351  0.00  0.00    +0.000 HD
ATOM     28  H   UNL     1       0.659   2.979  -1.772  0.00  0.00    +0.000 HD
ENDBRANCH  25  26
BRANCH  25  29
ATOM     29  C   UNL     1       3.170   4.185  -1.742  0.00  0.00    +0.000 C 
BRANCH  29  33
ATOM     30  F   UNL     1       2.926   3.115  -4.375  0.00  0.00    +0.000 F 
ATOM     31  F   UNL     1       4.624  -0.308  -0.490  0.00  0.00    +0.000 F 
ATOM     32  F   UNL     1       4.483  -1.140  -3.095  0.00  0.00    +0.000 F 
ATOM     33  C   UNL     1       3.423   2.735  -2.089  0.00  0.00    +0.000 A 
ATOM     34  C   UNL     1       3.332   2.278  -3.411  0.00  0.00    +0.000 A 
ATOM     35  C   UNL     1       3.850   1.835  -1.098  0.00  0.00    +0.000 A 
ATOM     36  C   UNL     1       4.196   0.530  -1.443  0.00  0.00    +0.000 A 
ATOM     37  C   UNL     1       3.678   0.974  -3.756  0.00  0.00    +0.000 A 
ATOM     38  C   UNL     1       4.120   0.107  -2.765  0.00  0.00    +0.000 A 
ENDBRANCH  29  33
ENDBRANCH  25  29
ENDBRANCH  24  25
ENDBRANCH  10  24
TORSDOF 8
