REMARK  Name = 20628249
REMARK  7 active torsions:
REMARK  status: ('A' for Active; 'I' for Inactive)
REMARK    1  A    between atoms: N_8  and  C_14
REMARK    2  A    between atoms: C_13  and  C_14
REMARK    3  A    between atoms: C_13  and  C_15
REMARK    4  A    between atoms: C_14  and  C_17
REMARK    5  A    between atoms: C_16  and  C_18
REMARK    6  A    between atoms: C_17  and  C_19
REMARK    7  A    between atoms: C_18  and  C_20
REMARK                            x       y       z     vdW  Elec       q    Type
REMARK                         _______ _______ _______ _____ _____    ______ ____
ROOT
ATOM      1  C   UNL     1      -1.971  -4.521  -1.193  0.00  0.00    +0.000 C 
ENDROOT
BRANCH   1  11
ATOM      2  O   UNL     1      -4.196  -4.634  -2.101  0.00  0.00    +0.000 OA
ATOM      3  N   UNL     1      -4.060  -3.741   0.000  0.00  0.00    +0.000 N 
ATOM      4  N   UNL     1      -5.119  -1.572   1.342  0.00  0.00    +0.000 N 
ATOM      5  N   UNL     1      -3.359  -1.220   2.588  0.00  0.00    +0.000 NA
ATOM      6  N   UNL     1      -4.215  -0.149   2.718  0.00  0.00    +0.000 NA
ATOM      7  C   UNL     1      -5.521  -3.678   0.170  0.00  0.00    +0.000 C 
ATOM      8  C   UNL     1      -5.970  -2.225   0.367  0.00  0.00    +0.000 C 
ATOM      9  C   UNL     1      -3.321  -3.324   1.194  0.00  0.00    +0.000 C 
ATOM     10  C   UNL     1      -3.898  -2.058   1.728  0.00  0.00    +0.000 A 
ATOM     11  C   UNL     1      -3.497  -4.285  -1.154  0.00  0.00    +0.000 C 
ATOM     12  C   UNL     1      -5.260  -0.350   1.942  0.00  0.00    +0.000 A 
BRANCH  12  13
ATOM     13  C   UNL     1      -6.379   0.600   1.707  0.00  0.00    +0.000 C 
ATOM     14  C   UNL     1      -7.515   0.393   2.695  0.00  0.00    +0.000 C 
ENDBRANCH  12  13
ENDBRANCH   1  11
BRANCH   1  15
ATOM     15  C   UNL     1      -1.070  -3.548  -2.000  0.00  0.00    +0.000 C 
BRANCH  15  16
ATOM     16  N   UNL     1       0.323  -4.042  -1.868  0.00  0.00    +0.000 NA
ATOM     17  H   UNL     1       0.408  -4.983  -2.253  0.00  0.00    +0.000 HD
ATOM     18  H   UNL     1       0.952  -3.457  -2.422  0.00  0.00    +0.000 HD
ENDBRANCH  15  16
BRANCH  15  19
ATOM     19  C   UNL     1      -1.128  -2.089  -1.488  0.00  0.00    +0.000 C 
BRANCH  19  22
ATOM     20  F   UNL     1      -1.121  -1.274  -4.264  0.00  0.00    +0.000 F 
ATOM     21  F   UNL     1       2.549   1.100  -1.008  0.00  0.00    +0.000 F 
ATOM     22  C   UNL     1      -0.161  -1.088  -2.101  0.00  0.00    +0.000 A 
ATOM     23  C   UNL     1      -0.213  -0.716  -3.450  0.00  0.00    +0.000 A 
ATOM     24  C   UNL     1       0.795  -0.456  -1.287  0.00  0.00    +0.000 A 
ATOM     25  C   UNL     1       1.659   0.504  -1.811  0.00  0.00    +0.000 A 
ATOM     26  C   UNL     1       0.658   0.239  -3.976  0.00  0.00    +0.000 A 
ATOM     27  C   UNL     1       1.600   0.862  -3.151  0.00  0.00    +0.000 A 
ENDBRANCH  19  22
ENDBRANCH  15  19
ENDBRANCH   1  15
TORSDOF 6
