REMARK  Name = 10238227
REMARK  8 active torsions:
REMARK  status: ('A' for Active; 'I' for Inactive)
REMARK    1  A    between atoms: N_12  and  C_21
REMARK    2  A    between atoms: C_13  and  C_17
REMARK    3  A    between atoms: C_17  and  C_22
REMARK    4  A    between atoms: C_18  and  C_19
REMARK    5  A    between atoms: C_19  and  C_21
REMARK    6  A    between atoms: C_20  and  C_24
REMARK    7  A    between atoms: C_21  and  C_23
REMARK    8  A    between atoms: C_23  and  C_25
REMARK                            x       y       z     vdW  Elec       q    Type
REMARK                         _______ _______ _______ _____ _____    ______ ____
ROOT
ATOM      1  O   UNL     1       6.520   2.992   3.986  0.00  0.00    +0.000 OA
ATOM      2  N   UNL     1       4.279   2.501   4.273  0.00  0.00    +0.000 N 
ATOM      3  N   UNL     1       1.774   2.380   3.068  0.00  0.00    +0.000 N 
ATOM      4  N   UNL     1       1.676   4.454   2.436  0.00  0.00    +0.000 NA
ATOM      5  N   UNL     1       0.592   3.794   1.916  0.00  0.00    +0.000 NA
ATOM      6  C   UNL     1       3.736   3.834   3.817  0.00  0.00    +0.000 C 
ATOM      7  C   UNL     1       3.255   1.613   4.847  0.00  0.00    +0.000 C 
ATOM      8  C   UNL     1       2.428   3.588   3.083  0.00  0.00    +0.000 A 
ATOM      9  C   UNL     1       2.234   1.217   3.788  0.00  0.00    +0.000 C 
ATOM     10  C   UNL     1       5.645   2.203   4.330  0.00  0.00    +0.000 C 
ATOM     11  C   UNL     1       0.659   2.526   2.284  0.00  0.00    +0.000 A 
ENDROOT
BRANCH  11  15
ATOM     12  F   UNL     1       0.079   0.237   2.443  0.00  0.00    +0.000 F 
ATOM     13  F   UNL     1      -0.388   1.261   0.586  0.00  0.00    +0.000 F 
ATOM     14  F   UNL     1      -1.543   1.684   2.393  0.00  0.00    +0.000 F 
ATOM     15  C   UNL     1      -0.291   1.443   1.927  0.00  0.00    +0.000 C 
ENDBRANCH  11  15
BRANCH   6  16
ATOM     16  C   UNL     1       4.685   4.742   3.000  0.00  0.00    +0.000 C 
ATOM     17  C   UNL     1       4.104   6.087   2.571  0.00  0.00    +0.000 C 
ENDBRANCH   6  16
BRANCH  10  18
ATOM     18  C   UNL     1       6.038   0.811   4.834  0.00  0.00    +0.000 C 
BRANCH  18  19
ATOM     19  C   UNL     1       7.549   0.499   4.753  0.00  0.00    +0.000 C 
BRANCH  19  20
ATOM     20  N   UNL     1       7.782  -0.934   5.027  0.00  0.00    +0.000 NA
ATOM     21  H   UNL     1       7.075  -1.520   4.589  0.00  0.00    +0.000 HD
ATOM     22  H   UNL     1       7.764  -1.128   6.027  0.00  0.00    +0.000 HD
ENDBRANCH  19  20
BRANCH  19  23
ATOM     23  C   UNL     1       8.468   1.368   5.655  0.00  0.00    +0.000 C 
BRANCH  23  27
ATOM     24  F   UNL     1       9.536  -0.437   7.600  0.00  0.00    +0.000 F 
ATOM     25  F   UNL     1       5.953   3.248   9.397  0.00  0.00    +0.000 F 
ATOM     26  F   UNL     1       7.004   1.391  11.114  0.00  0.00    +0.000 F 
ATOM     27  C   UNL     1       8.111   1.404   7.126  0.00  0.00    +0.000 A 
ATOM     28  C   UNL     1       8.658   0.480   8.028  0.00  0.00    +0.000 A 
ATOM     29  C   UNL     1       7.211   2.362   7.612  0.00  0.00    +0.000 A 
ATOM     30  C   UNL     1       6.844   2.351   8.954  0.00  0.00    +0.000 A 
ATOM     31  C   UNL     1       8.300   0.474   9.374  0.00  0.00    +0.000 A 
ATOM     32  C   UNL     1       7.380   1.409   9.827  0.00  0.00    +0.000 A 
ENDBRANCH  23  27
ENDBRANCH  19  23
ENDBRANCH  18  19
ENDBRANCH  10  18
TORSDOF 7
