REMARK  Name = 11236256
REMARK  12 active torsions:
REMARK  status: ('A' for Active; 'I' for Inactive)
REMARK    1  A    between atoms: O_4  and  C_22
REMARK    2  A    between atoms: O_4  and  C_23
REMARK    3  A    between atoms: N_8  and  C_14
REMARK    4  A    between atoms: C_14  and  C_16
REMARK    5  A    between atoms: C_14  and  C_19
REMARK    6  A    between atoms: C_16  and  C_17
REMARK    7  A    between atoms: C_18  and  C_20
REMARK    8  A    between atoms: C_19  and  C_21
REMARK    9  A    between atoms: C_20  and  C_24
REMARK   10  A    between atoms: C_22  and  C_27
REMARK   11  A    between atoms: C_22  and  C_28
REMARK   12  A    between atoms: C_22  and  C_29
REMARK                            x       y       z     vdW  Elec       q    Type
REMARK                         _______ _______ _______ _____ _____    ______ ____
ROOT
ATOM      1  C   UNL     1      -4.247  -0.909   1.285  0.00  0.00    +0.000 C 
ENDROOT
BRANCH   1   3
ATOM      2  O   UNL     1      -5.469   0.172   3.712  0.00  0.00    +0.000 OA
ATOM      3  N   UNL     1      -4.802   0.438   1.533  0.00  0.00    +0.000 N 
ATOM      4  C   UNL     1      -5.440   0.821   2.678  0.00  0.00    +0.000 C 
ATOM      5  H   UNL     1      -4.941   1.067   0.753  0.00  0.00    +0.000 HD
BRANCH   4   6
ATOM      6  O   UNL     1      -6.074   1.995   2.449  0.00  0.00    +0.000 OA
BRANCH   6   7
ATOM      7  C   UNL     1      -6.906   2.630   3.465  0.00  0.00    +0.000 C 
ATOM      8  C   UNL     1      -6.064   3.110   4.651  0.00  0.00    +0.000 C 
ATOM      9  C   UNL     1      -7.525   3.859   2.771  0.00  0.00    +0.000 C 
ATOM     10  C   UNL     1      -8.050   1.719   3.928  0.00  0.00    +0.000 C 
ENDBRANCH   6   7
ENDBRANCH   4   6
ENDBRANCH   1   3
BRANCH   1  11
ATOM     11  C   UNL     1      -5.429  -1.896   1.128  0.00  0.00    +0.000 C 
BRANCH  11  21
ATOM     12  O   UNL     1      -3.963  -3.805   0.997  0.00  0.00    +0.000 OA
ATOM     13  N   UNL     1      -6.177  -4.194   0.526  0.00  0.00    +0.000 N 
ATOM     14  N   UNL     1      -7.676  -5.468  -1.426  0.00  0.00    +0.000 N 
ATOM     15  N   UNL     1      -9.354  -4.074  -1.345  0.00  0.00    +0.000 NA
ATOM     16  N   UNL     1      -9.533  -4.916  -2.418  0.00  0.00    +0.000 NA
ATOM     17  C   UNL     1      -5.978  -5.639   0.340  0.00  0.00    +0.000 C 
ATOM     18  C   UNL     1      -6.412  -6.076  -1.065  0.00  0.00    +0.000 C 
ATOM     19  C   UNL     1      -7.578  -3.757   0.416  0.00  0.00    +0.000 C 
ATOM     20  C   UNL     1      -8.221  -4.398  -0.764  0.00  0.00    +0.000 A 
ATOM     21  C   UNL     1      -5.106  -3.369   0.879  0.00  0.00    +0.000 C 
ATOM     22  C   UNL     1      -8.507  -5.741  -2.478  0.00  0.00    +0.000 A 
BRANCH  22  23
ATOM     23  C   UNL     1      -8.267  -6.763  -3.533  0.00  0.00    +0.000 C 
ATOM     24  C   UNL     1      -8.920  -8.094  -3.201  0.00  0.00    +0.000 C 
ENDBRANCH  22  23
ENDBRANCH  11  21
ENDBRANCH   1  11
BRANCH   1  25
ATOM     25  C   UNL     1      -3.378  -0.887  -0.004  0.00  0.00    +0.000 C 
BRANCH  25  28
ATOM     26  F   UNL     1       0.514   1.450   1.924  0.00  0.00    +0.000 F 
ATOM     27  F   UNL     1       1.118   2.529  -0.519  0.00  0.00    +0.000 F 
ATOM     28  C   UNL     1      -2.204   0.074  -0.079  0.00  0.00    +0.000 A 
ATOM     29  C   UNL     1      -1.380   0.361   1.018  0.00  0.00    +0.000 A 
ATOM     30  C   UNL     1      -1.862   0.625  -1.332  0.00  0.00    +0.000 A 
ATOM     31  C   UNL     1      -0.267   1.192   0.864  0.00  0.00    +0.000 A 
ATOM     32  C   UNL     1      -0.746   1.456  -1.480  0.00  0.00    +0.000 A 
ATOM     33  C   UNL     1       0.044   1.739  -0.373  0.00  0.00    +0.000 A 
ENDBRANCH  25  28
ENDBRANCH   1  25
TORSDOF 8
