REMARK  Name = 23647146
REMARK  8 active torsions:
REMARK  status: ('A' for Active; 'I' for Inactive)
REMARK    1  A    between atoms: N_10  and  C_14
REMARK    2  A    between atoms: C_13  and  C_14
REMARK    3  A    between atoms: C_13  and  C_16
REMARK    4  A    between atoms: C_13  and  C_19
REMARK    5  A    between atoms: C_14  and  C_20
REMARK    6  A    between atoms: C_19  and  C_24
REMARK    7  A    between atoms: C_20  and  C_23
REMARK    8  A    between atoms: C_22  and  C_25
REMARK                            x       y       z     vdW  Elec       q    Type
REMARK                         _______ _______ _______ _____ _____    ______ ____
ROOT
ATOM      1  C   UNL     1       1.298   5.987  -1.990  0.00  0.00    +0.000 C 
ENDROOT
BRANCH   1   8
ATOM      2  O   UNL     1       1.772   6.852  -4.192  0.00  0.00    +0.000 OA
ATOM      3  N   UNL     1       3.180   7.597  -2.560  0.00  0.00    +0.000 N 
ATOM      4  N   UNL     1       4.247  10.010  -1.675  0.00  0.00    +0.000 N 
ATOM      5  N   UNL     1       5.037  10.648  -3.600  0.00  0.00    +0.000 NA
ATOM      6  N   UNL     1       5.228  11.662  -2.687  0.00  0.00    +0.000 NA
ATOM      7  C   UNL     1       3.660   7.694  -1.179  0.00  0.00    +0.000 C 
ATOM      8  C   UNL     1       2.100   6.840  -3.001  0.00  0.00    +0.000 C 
ATOM      9  C   UNL     1       3.972   8.348  -3.549  0.00  0.00    +0.000 C 
ATOM     10  C   UNL     1       3.614   9.146  -0.704  0.00  0.00    +0.000 C 
ATOM     11  C   UNL     1       4.413   9.663  -2.991  0.00  0.00    +0.000 A 
ATOM     12  C   UNL     1       4.719  11.284  -1.524  0.00  0.00    +0.000 A 
BRANCH  12  16
ATOM     13  F   UNL     1       3.891  11.464   0.691  0.00  0.00    +0.000 F 
ATOM     14  F   UNL     1       4.108  13.302  -0.442  0.00  0.00    +0.000 F 
ATOM     15  F   UNL     1       5.876  12.249   0.293  0.00  0.00    +0.000 F 
ATOM     16  C   UNL     1       4.651  12.070  -0.265  0.00  0.00    +0.000 C 
ENDBRANCH  12  16
ENDBRANCH   1   8
BRANCH   1  17
ATOM     17  C   UNL     1       0.155   6.836  -1.340  0.00  0.00    +0.000 C 
BRANCH  17  18
ATOM     18  N   UNL     1       0.710   7.970  -0.578  0.00  0.00    +0.000 NA
ATOM     19  H   UNL     1       0.858   7.689   0.396  0.00  0.00    +0.000 HD
ATOM     20  H   UNL     1       0.010   8.713  -0.532  0.00  0.00    +0.000 HD
ENDBRANCH  17  18
BRANCH  17  21
ATOM     21  C   UNL     1      -0.763   5.994  -0.409  0.00  0.00    +0.000 C 
BRANCH  21  25
ATOM     22  F   UNL     1      -0.168   7.114   2.138  0.00  0.00    +0.000 F 
ATOM     23  F   UNL     1      -5.217   7.905   0.260  0.00  0.00    +0.000 F 
ATOM     24  F   UNL     1      -4.492   8.874   2.716  0.00  0.00    +0.000 F 
ATOM     25  C   UNL     1      -1.764   6.777   0.415  0.00  0.00    +0.000 A 
ATOM     26  C   UNL     1      -1.416   7.287   1.677  0.00  0.00    +0.000 A 
ATOM     27  C   UNL     1      -3.062   7.004  -0.062  0.00  0.00    +0.000 A 
ATOM     28  C   UNL     1      -3.975   7.707   0.722  0.00  0.00    +0.000 A 
ATOM     29  C   UNL     1      -2.323   7.998   2.456  0.00  0.00    +0.000 A 
ATOM     30  C   UNL     1      -3.608   8.198   1.971  0.00  0.00    +0.000 A 
ENDBRANCH  21  25
ENDBRANCH  17  21
ENDBRANCH   1  17
BRANCH   1  31
ATOM     31  C   UNL     1       0.740   4.735  -2.725  0.00  0.00    +0.000 C 
BRANCH  31  32
ATOM     32  C   UNL     1       1.817   3.792  -3.201  0.00  0.00    +0.000 C 
ATOM     33  C   UNL     1       1.977   2.540  -2.753  0.00  0.00    +0.000 C 
ENDBRANCH  31  32
ENDBRANCH   1  31
TORSDOF 8
