REMARK  Name = 24777306
REMARK  7 active torsions:
REMARK  status: ('A' for Active; 'I' for Inactive)
REMARK    1  A    between atoms: N_12  and  C_21
REMARK    2  A    between atoms: C_13  and  C_17
REMARK    3  A    between atoms: C_18  and  C_19
REMARK    4  A    between atoms: C_19  and  C_21
REMARK    5  A    between atoms: C_20  and  C_23
REMARK    6  A    between atoms: C_21  and  C_22
REMARK    7  A    between atoms: C_22  and  C_24
REMARK                            x       y       z     vdW  Elec       q    Type
REMARK                         _______ _______ _______ _____ _____    ______ ____
ROOT
ATOM      1  O   UNL     1       0.244   4.612  -2.127  0.00  0.00    +0.000 OA
ATOM      2  N   UNL     1      -0.999   6.527  -2.080  0.00  0.00    +0.000 N 
ATOM      3  N   UNL     1      -3.637   7.189  -2.660  0.00  0.00    +0.000 N 
ATOM      4  N   UNL     1      -3.579   6.546  -4.745  0.00  0.00    +0.000 NA
ATOM      5  N   UNL     1      -4.839   7.016  -4.465  0.00  0.00    +0.000 NA
ATOM      6  C   UNL     1      -3.146   7.435  -1.312  0.00  0.00    +0.000 C 
ATOM      7  C   UNL     1      -1.626   7.650  -1.379  0.00  0.00    +0.000 C 
ATOM      8  C   UNL     1      -1.402   6.340  -3.482  0.00  0.00    +0.000 C 
ATOM      9  C   UNL     1      -2.853   6.660  -3.657  0.00  0.00    +0.000 A 
ATOM     10  C   UNL     1      -3.520   6.274  -0.386  0.00  0.00    +0.000 C 
ATOM     11  C   UNL     1      -0.174   5.579  -1.495  0.00  0.00    +0.000 C 
ATOM     12  C   UNL     1      -4.873   7.421  -3.205  0.00  0.00    +0.000 A 
ENDROOT
BRANCH  12  16
ATOM     13  F   UNL     1      -5.746   8.377  -1.215  0.00  0.00    +0.000 F 
ATOM     14  F   UNL     1      -7.092   7.181  -2.425  0.00  0.00    +0.000 F 
ATOM     15  F   UNL     1      -6.466   9.161  -3.106  0.00  0.00    +0.000 F 
ATOM     16  C   UNL     1      -6.033   8.026  -2.499  0.00  0.00    +0.000 C 
ENDBRANCH  12  16
BRANCH  11  17
ATOM     17  C   UNL     1       0.168   5.782  -0.025  0.00  0.00    +0.000 C 
BRANCH  17  18
ATOM     18  C   UNL     1       1.085   4.694   0.545  0.00  0.00    +0.000 C 
BRANCH  18  19
ATOM     19  N   UNL     1       1.181   4.904   2.007  0.00  0.00    +0.000 NA
ATOM     20  H   UNL     1       1.772   4.175   2.410  0.00  0.00    +0.000 HD
ATOM     21  H   UNL     1       0.264   4.766   2.433  0.00  0.00    +0.000 HD
ENDBRANCH  18  19
BRANCH  18  22
ATOM     22  C   UNL     1       2.491   4.737  -0.102  0.00  0.00    +0.000 C 
BRANCH  22  26
ATOM     23  F   UNL     1       2.038   1.927  -0.316  0.00  0.00    +0.000 F 
ATOM     24  F   UNL     1       6.594   3.492   2.230  0.00  0.00    +0.000 F 
ATOM     25  F   UNL     1       5.978   0.833   2.003  0.00  0.00    +0.000 F 
ATOM     26  C   UNL     1       3.440   3.691   0.435  0.00  0.00    +0.000 A 
ATOM     27  C   UNL     1       3.157   2.326   0.309  0.00  0.00    +0.000 A 
ATOM     28  C   UNL     1       4.624   4.080   1.080  0.00  0.00    +0.000 A 
ATOM     29  C   UNL     1       5.474   3.110   1.601  0.00  0.00    +0.000 A 
ATOM     30  C   UNL     1       4.002   1.357   0.834  0.00  0.00    +0.000 A 
ATOM     31  C   UNL     1       5.162   1.760   1.483  0.00  0.00    +0.000 A 
ENDBRANCH  22  26
ENDBRANCH  18  22
ENDBRANCH  17  18
ENDBRANCH  11  17
TORSDOF 6
