REMARK  Name = 10318974
REMARK  7 active torsions:
REMARK  status: ('A' for Active; 'I' for Inactive)
REMARK    1  A    between atoms: N_11  and  C_18
REMARK    2  A    between atoms: C_12  and  C_19
REMARK    3  A    between atoms: C_16  and  C_17
REMARK    4  A    between atoms: C_17  and  C_18
REMARK    5  A    between atoms: C_18  and  C_20
REMARK    6  A    between atoms: C_20  and  C_22
REMARK    7  A    between atoms: C_21  and  C_23
REMARK                            x       y       z     vdW  Elec       q    Type
REMARK                         _______ _______ _______ _____ _____    ______ ____
ROOT
ATOM      1  O   UNL     1       4.065   0.290   6.199  0.00  0.00    +0.000 OA
ATOM      2  N   UNL     1       3.505  -1.873   5.624  0.00  0.00    +0.000 N 
ATOM      3  N   UNL     1       3.075  -3.740   3.641  0.00  0.00    +0.000 N 
ATOM      4  N   UNL     1       1.890  -2.496   2.311  0.00  0.00    +0.000 NA
ATOM      5  N   UNL     1       2.916  -4.522   2.568  0.00  0.00    +0.000 NA
ATOM      6  C   UNL     1       2.506  -1.476   4.579  0.00  0.00    +0.000 C 
ATOM      7  C   UNL     1       3.476  -3.303   5.984  0.00  0.00    +0.000 C 
ATOM      8  C   UNL     1       3.826  -4.177   4.791  0.00  0.00    +0.000 C 
ATOM      9  C   UNL     1       2.479  -2.524   3.492  0.00  0.00    +0.000 A 
ATOM     10  C   UNL     1       4.178  -0.919   6.389  0.00  0.00    +0.000 C 
ATOM     11  C   UNL     1       2.663  -0.086   3.950  0.00  0.00    +0.000 C 
ATOM     12  C   UNL     1       2.191  -3.731   1.757  0.00  0.00    +0.000 A 
ENDROOT
BRANCH  12  15
ATOM     13  F   UNL     1       2.800  -4.433  -0.430  0.00  0.00    +0.000 F 
ATOM     14  F   UNL     1       0.951  -5.238   0.400  0.00  0.00    +0.000 F 
ATOM     15  C   UNL     1       1.745  -4.129   0.380  0.00  0.00    +0.000 C 
ENDBRANCH  12  15
BRANCH  10  16
ATOM     16  C   UNL     1       5.126  -1.433   7.470  0.00  0.00    +0.000 C 
BRANCH  16  17
ATOM     17  C   UNL     1       5.858  -0.312   8.233  0.00  0.00    +0.000 C 
BRANCH  17  18
ATOM     18  N   UNL     1       6.884  -0.899   9.119  0.00  0.00    +0.000 NA
ATOM     19  H   UNL     1       7.790  -0.475   8.917  0.00  0.00    +0.000 HD
ATOM     20  H   UNL     1       6.995  -1.899   8.971  0.00  0.00    +0.000 HD
ENDBRANCH  17  18
BRANCH  17  21
ATOM     21  C   UNL     1       4.873   0.530   9.085  0.00  0.00    +0.000 C 
BRANCH  21  25
ATOM     22  F   UNL     1       4.714   0.733  11.911  0.00  0.00    +0.000 F 
ATOM     23  F   UNL     1       7.464   4.675   9.342  0.00  0.00    +0.000 F 
ATOM     24  F   UNL     1       7.201   4.721  12.067  0.00  0.00    +0.000 F 
ATOM     25  C   UNL     1       5.514   1.649   9.870  0.00  0.00    +0.000 A 
ATOM     26  C   UNL     1       5.392   1.693  11.266  0.00  0.00    +0.000 A 
ATOM     27  C   UNL     1       6.218   2.677   9.221  0.00  0.00    +0.000 A 
ATOM     28  C   UNL     1       6.788   3.704   9.970  0.00  0.00    +0.000 A 
ATOM     29  C   UNL     1       5.958   2.721  12.012  0.00  0.00    +0.000 A 
ATOM     30  C   UNL     1       6.657   3.724  11.355  0.00  0.00    +0.000 A 
ENDBRANCH  21  25
ENDBRANCH  17  21
ENDBRANCH  16  17
ENDBRANCH  10  16
TORSDOF 6
