REMARK  Name = 20628248
REMARK  7 active torsions:
REMARK  status: ('A' for Active; 'I' for Inactive)
REMARK    1  A    between atoms: N_11  and  C_18
REMARK    2  A    between atoms: C_16  and  C_17
REMARK    3  A    between atoms: C_16  and  C_18
REMARK    4  A    between atoms: C_18  and  C_20
REMARK    5  A    between atoms: C_19  and  C_21
REMARK    6  A    between atoms: C_20  and  C_22
REMARK    7  A    between atoms: C_21  and  C_23
REMARK                            x       y       z     vdW  Elec       q    Type
REMARK                         _______ _______ _______ _____ _____    ______ ____
ROOT
ATOM      1  O   UNL     1       6.176  -3.412   0.661  0.00  0.00    +0.000 OA
ATOM      2  N   UNL     1       4.154  -4.459   0.479  0.00  0.00    +0.000 N 
ATOM      3  N   UNL     1       1.611  -3.997  -0.532  0.00  0.00    +0.000 N 
ATOM      4  N   UNL     1       1.302  -2.076   0.449  0.00  0.00    +0.000 NA
ATOM      5  N   UNL     1       0.209  -2.345  -0.340  0.00  0.00    +0.000 NA
ATOM      6  C   UNL     1       3.298  -5.610   0.164  0.00  0.00    +0.000 C 
ATOM      7  C   UNL     1       2.278  -5.223  -0.906  0.00  0.00    +0.000 C 
ATOM      8  C   UNL     1       3.463  -3.264   0.998  0.00  0.00    +0.000 C 
ATOM      9  C   UNL     1       2.148  -3.074   0.324  0.00  0.00    +0.000 A 
ATOM     10  C   UNL     1       5.540  -4.435   0.418  0.00  0.00    +0.000 C 
ATOM     11  C   UNL     1       0.396  -3.510  -0.924  0.00  0.00    +0.000 A 
ENDROOT
BRANCH  10  12
ATOM     12  C   UNL     1       6.243  -5.729   0.022  0.00  0.00    +0.000 C 
BRANCH  12  13
ATOM     13  C   UNL     1       7.780  -5.615   0.008  0.00  0.00    +0.000 C 
BRANCH  13  14
ATOM     14  N   UNL     1       8.366  -6.838  -0.575  0.00  0.00    +0.000 NA
ATOM     15  H   UNL     1       8.278  -6.835  -1.588  0.00  0.00    +0.000 HD
ATOM     16  H   UNL     1       7.907  -7.675  -0.223  0.00  0.00    +0.000 HD
ENDBRANCH  13  14
BRANCH  13  17
ATOM     17  C   UNL     1       8.364  -5.381   1.425  0.00  0.00    +0.000 C 
BRANCH  17  20
ATOM     18  F   UNL     1      10.046  -7.176   2.851  0.00  0.00    +0.000 F 
ATOM     19  F   UNL     1      12.539  -3.196   0.089  0.00  0.00    +0.000 F 
ATOM     20  C   UNL     1       9.871  -5.270   1.449  0.00  0.00    +0.000 A 
ATOM     21  C   UNL     1      10.642  -6.189   2.166  0.00  0.00    +0.000 A 
ATOM     22  C   UNL     1      10.530  -4.244   0.750  0.00  0.00    +0.000 A 
ATOM     23  C   UNL     1      11.921  -4.170   0.772  0.00  0.00    +0.000 A 
ATOM     24  C   UNL     1      12.034  -6.108   2.191  0.00  0.00    +0.000 A 
ATOM     25  C   UNL     1      12.678  -5.092   1.485  0.00  0.00    +0.000 A 
ENDBRANCH  17  20
ENDBRANCH  13  17
ENDBRANCH  12  13
ENDBRANCH  10  12
BRANCH  11  26
ATOM     26  C   UNL     1      -0.545  -4.192  -1.849  0.00  0.00    +0.000 C 
BRANCH  26  30
ATOM     27  F   UNL     1      -1.285  -5.219   0.196  0.00  0.00    +0.000 F 
ATOM     28  F   UNL     1      -1.209  -6.433  -1.600  0.00  0.00    +0.000 F 
ATOM     29  F   UNL     1      -2.759  -4.914  -1.388  0.00  0.00    +0.000 F 
ATOM     30  C   UNL     1      -1.457  -5.178  -1.142  0.00  0.00    +0.000 C 
ENDBRANCH  26  30
ENDBRANCH  11  26
TORSDOF 7
