REMARK  Name = 10479823
REMARK  8 active torsions:
REMARK  status: ('A' for Active; 'I' for Inactive)
REMARK    1  A    between atoms: N_10  and  C_19
REMARK    2  A    between atoms: N_12  and  C_22
REMARK    3  A    between atoms: C_15  and  C_19
REMARK    4  A    between atoms: C_20  and  C_21
REMARK    5  A    between atoms: C_21  and  C_22
REMARK    6  A    between atoms: C_22  and  C_24
REMARK    7  A    between atoms: C_23  and  C_26
REMARK    8  A    between atoms: C_24  and  C_25
REMARK                            x       y       z     vdW  Elec       q    Type
REMARK                         _______ _______ _______ _____ _____    ______ ____
ROOT
ATOM      1  O   UNL     1       2.138   6.070  -6.825  0.00  0.00    +0.000 OA
ATOM      2  N   UNL     1       4.056   6.213  -5.593  0.00  0.00    +0.000 N 
ATOM      3  N   UNL     1       4.890   6.742  -3.036  0.00  0.00    +0.000 N 
ATOM      4  N   UNL     1       3.794   8.594  -2.745  0.00  0.00    +0.000 NA
ATOM      5  N   UNL     1       5.124   7.018  -1.752  0.00  0.00    +0.000 NA
ATOM      6  C   UNL     1       3.682   7.570  -5.085  0.00  0.00    +0.000 C 
ATOM      7  C   UNL     1       5.361   5.687  -5.151  0.00  0.00    +0.000 C 
ATOM      8  C   UNL     1       4.107   7.682  -3.642  0.00  0.00    +0.000 A 
ATOM      9  C   UNL     1       5.369   5.522  -3.643  0.00  0.00    +0.000 C 
ATOM     10  C   UNL     1       3.181   5.543  -6.445  0.00  0.00    +0.000 C 
ATOM     11  C   UNL     1       4.446   8.175  -1.585  0.00  0.00    +0.000 A 
ENDROOT
BRANCH  11  15
ATOM     12  F   UNL     1       3.660  10.060  -0.317  0.00  0.00    +0.000 F 
ATOM     13  F   UNL     1       5.628   9.263   0.184  0.00  0.00    +0.000 F 
ATOM     14  F   UNL     1       3.829   8.151   0.721  0.00  0.00    +0.000 F 
ATOM     15  C   UNL     1       4.389   8.912  -0.262  0.00  0.00    +0.000 C 
ENDBRANCH  11  15
BRANCH   6  16
ATOM     16  C   UNL     1       4.287   8.663  -5.980  0.00  0.00    +0.000 C 
BRANCH  16  17
ATOM     17  N   UNL     1       3.995  10.024  -5.590  0.00  0.00    +0.000 N 
ATOM     18  N   UNL     1       5.000  10.896  -5.379  0.00  0.00    +0.000 NA
ATOM     19  N   UNL     1       2.966  11.923  -5.271  0.00  0.00    +0.000 NA
ATOM     20  C   UNL     1       2.791  10.651  -5.544  0.00  0.00    +0.000 A 
ATOM     21  C   UNL     1       4.322  12.028  -5.166  0.00  0.00    +0.000 A 
ENDBRANCH  16  17
ENDBRANCH   6  16
BRANCH  10  22
ATOM     22  C   UNL     1       3.573   4.124  -6.846  0.00  0.00    +0.000 C 
BRANCH  22  23
ATOM     23  C   UNL     1       2.531   3.371  -7.687  0.00  0.00    +0.000 C 
BRANCH  23  24
ATOM     24  N   UNL     1       2.934   1.952  -7.781  0.00  0.00    +0.000 NA
ATOM     25  H   UNL     1       2.183   1.414  -8.217  0.00  0.00    +0.000 HD
ATOM     26  H   UNL     1       3.061   1.553  -6.851  0.00  0.00    +0.000 HD
ENDBRANCH  23  24
BRANCH  23  27
ATOM     27  C   UNL     1       2.278   3.975  -9.094  0.00  0.00    +0.000 C 
BRANCH  27  30
ATOM     28  F   UNL     1       5.151   6.853 -11.808  0.00  0.00    +0.000 F 
ATOM     29  F   UNL     1       6.587   4.695 -12.691  0.00  0.00    +0.000 F 
ATOM     30  C   UNL     1       3.468   4.168 -10.011  0.00  0.00    +0.000 A 
ATOM     31  C   UNL     1       3.805   5.452 -10.468  0.00  0.00    +0.000 A 
ATOM     32  C   UNL     1       4.207   3.071 -10.487  0.00  0.00    +0.000 A 
ATOM     33  C   UNL     1       4.855   5.622 -11.370  0.00  0.00    +0.000 A 
ATOM     34  C   UNL     1       5.264   3.250 -11.383  0.00  0.00    +0.000 A 
ATOM     35  C   UNL     1       5.581   4.528 -11.822  0.00  0.00    +0.000 A 
ENDBRANCH  27  30
ENDBRANCH  23  27
ENDBRANCH  22  23
ENDBRANCH  10  22
TORSDOF 8
