REMARK  Name = 24777308
REMARK  7 active torsions:
REMARK  status: ('A' for Active; 'I' for Inactive)
REMARK    1  A    between atoms: N_12  and  C_21
REMARK    2  A    between atoms: C_13  and  C_17
REMARK    3  A    between atoms: C_18  and  C_19
REMARK    4  A    between atoms: C_19  and  C_21
REMARK    5  A    between atoms: C_20  and  C_23
REMARK    6  A    between atoms: C_21  and  C_22
REMARK    7  A    between atoms: C_22  and  C_24
REMARK                            x       y       z     vdW  Elec       q    Type
REMARK                         _______ _______ _______ _____ _____    ______ ____
ROOT
ATOM      1  O   UNL     1       2.785   5.642  -1.941  0.00  0.00    +0.000 OA
ATOM      2  N   UNL     1       2.024   7.155  -3.468  0.00  0.00    +0.000 N 
ATOM      3  N   UNL     1       1.495   9.842  -3.877  0.00  0.00    +0.000 N 
ATOM      4  N   UNL     1       0.143   9.501  -5.570  0.00  0.00    +0.000 NA
ATOM      5  N   UNL     1       0.016  10.802  -5.166  0.00  0.00    +0.000 NA
ATOM      6  C   UNL     1       2.484   9.518  -2.852  0.00  0.00    +0.000 C 
ATOM      7  C   UNL     1       3.064   8.109  -3.093  0.00  0.00    +0.000 C 
ATOM      8  C   UNL     1       1.320   7.462  -4.712  0.00  0.00    +0.000 C 
ATOM      9  C   UNL     1       0.980   8.909  -4.751  0.00  0.00    +0.000 A 
ATOM     10  C   UNL     1       3.647  10.513  -2.759  0.00  0.00    +0.000 C 
ATOM     11  C   UNL     1       1.974   5.930  -2.820  0.00  0.00    +0.000 C 
ATOM     12  C   UNL     1       0.774  10.992  -4.097  0.00  0.00    +0.000 A 
ENDROOT
BRANCH  12  16
ATOM     13  F   UNL     1       1.473  12.058  -2.098  0.00  0.00    +0.000 F 
ATOM     14  F   UNL     1      -0.436  12.650  -2.929  0.00  0.00    +0.000 F 
ATOM     15  F   UNL     1       1.418  13.254  -3.915  0.00  0.00    +0.000 F 
ATOM     16  C   UNL     1       0.808  12.225  -3.271  0.00  0.00    +0.000 C 
ENDBRANCH  12  16
BRANCH  11  17
ATOM     17  C   UNL     1       0.859   4.976  -3.218  0.00  0.00    +0.000 C 
BRANCH  17  18
ATOM     18  C   UNL     1       0.859   3.669  -2.404  0.00  0.00    +0.000 C 
BRANCH  18  19
ATOM     19  N   UNL     1      -0.131   2.760  -3.020  0.00  0.00    +0.000 NA
ATOM     20  H   UNL     1      -0.160   1.885  -2.494  0.00  0.00    +0.000 HD
ATOM     21  H   UNL     1       0.180   2.498  -3.955  0.00  0.00    +0.000 HD
ENDBRANCH  18  19
BRANCH  18  22
ATOM     22  C   UNL     1       0.517   3.919  -0.914  0.00  0.00    +0.000 C 
BRANCH  22  26
ATOM     23  F   UNL     1       2.887   2.768   0.157  0.00  0.00    +0.000 F 
ATOM     24  F   UNL     1      -1.790   0.211   1.280  0.00  0.00    +0.000 F 
ATOM     25  F   UNL     1       0.571  -0.721   2.299  0.00  0.00    +0.000 F 
ATOM     26  C   UNL     1       0.526   2.666  -0.067  0.00  0.00    +0.000 A 
ATOM     27  C   UNL     1       1.729   2.156   0.441  0.00  0.00    +0.000 A 
ATOM     28  C   UNL     1      -0.668   1.991   0.220  0.00  0.00    +0.000 A 
ATOM     29  C   UNL     1      -0.646   0.851   1.012  0.00  0.00    +0.000 A 
ATOM     30  C   UNL     1       1.754   1.018   1.237  0.00  0.00    +0.000 A 
ATOM     31  C   UNL     1       0.558   0.371   1.525  0.00  0.00    +0.000 A 
ENDBRANCH  22  26
ENDBRANCH  18  22
ENDBRANCH  17  18
ENDBRANCH  11  17
TORSDOF 6
