REMARK  Name = 23646441
REMARK  7 active torsions:
REMARK  status: ('A' for Active; 'I' for Inactive)
REMARK    1  A    between atoms: N_11  and  C_19
REMARK    2  A    between atoms: C_12  and  C_18
REMARK    3  A    between atoms: C_16  and  C_17
REMARK    4  A    between atoms: C_17  and  C_19
REMARK    5  A    between atoms: C_19  and  C_21
REMARK    6  A    between atoms: C_20  and  C_22
REMARK    7  A    between atoms: C_21  and  C_23
REMARK                            x       y       z     vdW  Elec       q    Type
REMARK                         _______ _______ _______ _____ _____    ______ ____
ROOT
ATOM      1  O   UNL     1       8.552  -0.199  -3.882  0.00  0.00    +0.000 OA
ATOM      2  N   UNL     1       9.550   1.604  -2.891  0.00  0.00    +0.000 N 
ATOM      3  N   UNL     1      11.634   3.442  -3.201  0.00  0.00    +0.000 N 
ATOM      4  N   UNL     1      11.701   4.057  -1.109  0.00  0.00    +0.000 NA
ATOM      5  N   UNL     1      12.725   4.675  -1.786  0.00  0.00    +0.000 NA
ATOM      6  C   UNL     1       9.829   2.462  -1.715  0.00  0.00    +0.000 C 
ATOM      7  C   UNL     1       9.763   2.219  -4.206  0.00  0.00    +0.000 C 
ATOM      8  C   UNL     1      11.189   2.727  -4.375  0.00  0.00    +0.000 C 
ATOM      9  C   UNL     1      11.044   3.309  -1.969  0.00  0.00    +0.000 A 
ATOM     10  C   UNL     1       8.860   0.392  -2.847  0.00  0.00    +0.000 C 
ATOM     11  C   UNL     1       8.627   3.347  -1.378  0.00  0.00    +0.000 C 
ATOM     12  C   UNL     1      12.692   4.300  -3.054  0.00  0.00    +0.000 A 
ENDROOT
BRANCH  12  16
ATOM     13  F   UNL     1      13.344   4.103  -5.325  0.00  0.00    +0.000 F 
ATOM     14  F   UNL     1      14.911   4.424  -3.859  0.00  0.00    +0.000 F 
ATOM     15  F   UNL     1      13.551   6.050  -4.387  0.00  0.00    +0.000 F 
ATOM     16  C   UNL     1      13.616   4.716  -4.140  0.00  0.00    +0.000 C 
ENDBRANCH  12  16
BRANCH  10  17
ATOM     17  C   UNL     1       8.490  -0.169  -1.478  0.00  0.00    +0.000 C 
BRANCH  17  18
ATOM     18  C   UNL     1       7.793  -1.552  -1.523  0.00  0.00    +0.000 C 
BRANCH  18  19
ATOM     19  N   UNL     1       7.310  -1.883  -0.166  0.00  0.00    +0.000 NA
ATOM     20  H   UNL     1       7.074  -1.046   0.364  0.00  0.00    +0.000 HD
ATOM     21  H   UNL     1       8.029  -2.379   0.361  0.00  0.00    +0.000 HD
ENDBRANCH  18  19
BRANCH  18  22
ATOM     22  C   UNL     1       8.756  -2.649  -2.047  0.00  0.00    +0.000 C 
BRANCH  22  25
ATOM     23  F   UNL     1      10.468  -4.611  -2.958  0.00  0.00    +0.000 F 
ATOM     24  F   UNL     1       5.453  -6.327  -1.758  0.00  0.00    +0.000 F 
ATOM     25  C   UNL     1       8.290  -4.082  -2.186  0.00  0.00    +0.000 A 
ATOM     26  C   UNL     1       9.224  -5.017  -2.659  0.00  0.00    +0.000 A 
ATOM     27  C   UNL     1       7.000  -4.543  -1.890  0.00  0.00    +0.000 A 
ATOM     28  C   UNL     1       6.686  -5.894  -2.057  0.00  0.00    +0.000 A 
ATOM     29  C   UNL     1       8.907  -6.363  -2.834  0.00  0.00    +0.000 A 
ATOM     30  C   UNL     1       7.626  -6.806  -2.527  0.00  0.00    +0.000 A 
ENDBRANCH  22  25
ENDBRANCH  18  22
ENDBRANCH  17  18
ENDBRANCH  10  17
TORSDOF 6
