REMARK  Name = 24778190
REMARK  13 active torsions:
REMARK  status: ('A' for Active; 'I' for Inactive)
REMARK    1  A    between atoms: O_8  and  C_28
REMARK    2  A    between atoms: O_8  and  C_29
REMARK    3  A    between atoms: N_14  and  C_22
REMARK    4  A    between atoms: C_15  and  C_19
REMARK    5  A    between atoms: C_19  and  C_25
REMARK    6  A    between atoms: C_20  and  C_21
REMARK    7  A    between atoms: C_21  and  C_22
REMARK    8  A    between atoms: C_22  and  C_24
REMARK    9  A    between atoms: C_23  and  C_26
REMARK   10  A    between atoms: C_24  and  C_27
REMARK   11  A    between atoms: C_29  and  C_33
REMARK   12  A    between atoms: C_29  and  C_34
REMARK   13  A    between atoms: C_29  and  C_35
REMARK                            x       y       z     vdW  Elec       q    Type
REMARK                         _______ _______ _______ _____ _____    ______ ____
ROOT
ATOM      1  C   UNL     1      -0.348   6.819  -1.685  0.00  0.00    +0.000 C 
ENDROOT
BRANCH   1   3
ATOM      2  O   UNL     1      -1.588   4.305  -1.108  0.00  0.00    +0.000 OA
ATOM      3  N   UNL     1      -0.694   6.269  -0.362  0.00  0.00    +0.000 N 
ATOM      4  C   UNL     1      -1.314   5.064  -0.192  0.00  0.00    +0.000 C 
ATOM      5  H   UNL     1      -0.572   6.835   0.469  0.00  0.00    +0.000 HD
BRANCH   4   6
ATOM      6  O   UNL     1      -1.575   4.842   1.119  0.00  0.00    +0.000 OA
BRANCH   6   7
ATOM      7  C   UNL     1      -2.246   3.608   1.499  0.00  0.00    +0.000 C 
ATOM      8  C   UNL     1      -1.393   2.379   1.149  0.00  0.00    +0.000 C 
ATOM      9  C   UNL     1      -2.402   3.665   3.027  0.00  0.00    +0.000 C 
ATOM     10  C   UNL     1      -3.650   3.525   0.883  0.00  0.00    +0.000 C 
ENDBRANCH   6   7
ENDBRANCH   4   6
ENDBRANCH   1   3
BRANCH   1  11
ATOM     11  C   UNL     1       0.657   5.889  -2.401  0.00  0.00    +0.000 C 
BRANCH  11  21
ATOM     12  O   UNL     1       0.936   7.558  -4.105  0.00  0.00    +0.000 OA
ATOM     13  N   UNL     1       1.935   5.539  -4.501  0.00  0.00    +0.000 N 
ATOM     14  N   UNL     1       4.361   4.502  -5.367  0.00  0.00    +0.000 N 
ATOM     15  N   UNL     1       4.567   5.814  -7.095  0.00  0.00    +0.000 NA
ATOM     16  N   UNL     1       5.711   5.069  -6.978  0.00  0.00    +0.000 NA
ATOM     17  C   UNL     1       2.360   5.983  -5.858  0.00  0.00    +0.000 C 
ATOM     18  C   UNL     1       2.275   4.159  -4.129  0.00  0.00    +0.000 C 
ATOM     19  C   UNL     1       3.785   3.947  -4.163  0.00  0.00    +0.000 C 
ATOM     20  C   UNL     1       3.744   5.459  -6.133  0.00  0.00    +0.000 A 
ATOM     21  C   UNL     1       1.171   6.411  -3.733  0.00  0.00    +0.000 C 
ATOM     22  C   UNL     1       5.593   4.279  -5.924  0.00  0.00    +0.000 A 
BRANCH  22  26
ATOM     23  F   UNL     1       6.242   2.745  -4.240  0.00  0.00    +0.000 F 
ATOM     24  F   UNL     1       7.814   3.888  -5.208  0.00  0.00    +0.000 F 
ATOM     25  F   UNL     1       6.796   2.284  -6.289  0.00  0.00    +0.000 F 
ATOM     26  C   UNL     1       6.603   3.312  -5.425  0.00  0.00    +0.000 C 
ENDBRANCH  22  26
BRANCH  17  27
ATOM     27  C   UNL     1       1.336   5.518  -6.930  0.00  0.00    +0.000 C 
BRANCH  27  28
ATOM     28  C   UNL     1       1.630   5.975  -8.338  0.00  0.00    +0.000 C 
ATOM     29  C   UNL     1       0.817   6.733  -9.086  0.00  0.00    +0.000 C 
ENDBRANCH  27  28
ENDBRANCH  17  27
ENDBRANCH  11  21
ENDBRANCH   1  11
BRANCH   1  30
ATOM     30  C   UNL     1      -1.610   7.053  -2.553  0.00  0.00    +0.000 C 
BRANCH  30  34
ATOM     31  F   UNL     1      -1.091   9.790  -1.898  0.00  0.00    +0.000 F 
ATOM     32  F   UNL     1      -6.238   8.073  -1.419  0.00  0.00    +0.000 F 
ATOM     33  F   UNL     1      -5.618  10.710  -1.021  0.00  0.00    +0.000 F 
ATOM     34  C   UNL     1      -2.648   8.001  -2.001  0.00  0.00    +0.000 A 
ATOM     35  C   UNL     1      -2.348   9.349  -1.761  0.00  0.00    +0.000 A 
ATOM     36  C   UNL     1      -3.976   7.573  -1.856  0.00  0.00    +0.000 A 
ATOM     37  C   UNL     1      -4.968   8.489  -1.516  0.00  0.00    +0.000 A 
ATOM     38  C   UNL     1      -3.339  10.265  -1.418  0.00  0.00    +0.000 A 
ATOM     39  C   UNL     1      -4.652   9.827  -1.310  0.00  0.00    +0.000 A 
ENDBRANCH  30  34
ENDBRANCH   1  30
TORSDOF 10
