REMARK  Name = 11189358
REMARK  6 active torsions:
REMARK  status: ('A' for Active; 'I' for Inactive)
REMARK    1  A    between atoms: N_11  and  C_19
REMARK    2  A    between atoms: C_18  and  C_19
REMARK    3  A    between atoms: C_18  and  C_20
REMARK    4  A    between atoms: C_19  and  C_21
REMARK    5  A    between atoms: C_21  and  C_23
REMARK    6  A    between atoms: C_22  and  C_24
REMARK                            x       y       z     vdW  Elec       q    Type
REMARK                         _______ _______ _______ _____ _____    ______ ____
ROOT
ATOM      1  O   UNL     1       4.994  -0.950  -2.640  0.00  0.00    +0.000 OA
ATOM      2  N   UNL     1       7.115  -1.834  -2.611  0.00  0.00    +0.000 N 
ATOM      3  N   UNL     1      10.157  -2.312  -1.653  0.00  0.00    +0.000 N 
ATOM      4  N   UNL     1      10.496  -1.549   0.368  0.00  0.00    +0.000 NA
ATOM      5  N   UNL     1      11.646  -2.147  -0.057  0.00  0.00    +0.000 NA
ATOM      6  C   UNL     1       8.027  -2.968  -2.805  0.00  0.00    +0.000 C 
ATOM      7  C   UNL     1       7.599  -0.686  -1.825  0.00  0.00    +0.000 C 
ATOM      8  C   UNL     1       9.509  -2.597  -2.917  0.00  0.00    +0.000 C 
ATOM      9  C   UNL     1       8.213  -1.099  -0.491  0.00  0.00    +0.000 C 
ATOM     10  C   UNL     1       9.602  -1.632  -0.589  0.00  0.00    +0.000 A 
ATOM     11  C   UNL     1       5.752  -1.879  -2.920  0.00  0.00    +0.000 C 
ATOM     12  C   UNL     1      11.458  -2.603  -1.282  0.00  0.00    +0.000 A 
ENDROOT
BRANCH  12  16
ATOM     13  F   UNL     1      12.096  -3.555  -3.373  0.00  0.00    +0.000 F 
ATOM     14  F   UNL     1      12.798  -4.523  -1.564  0.00  0.00    +0.000 F 
ATOM     15  F   UNL     1      13.644  -2.609  -2.186  0.00  0.00    +0.000 F 
ATOM     16  C   UNL     1      12.485  -3.313  -2.092  0.00  0.00    +0.000 C 
ENDBRANCH  12  16
BRANCH  11  17
ATOM     17  C   UNL     1       5.231  -3.127  -3.623  0.00  0.00    +0.000 C 
BRANCH  17  18
ATOM     18  C   UNL     1       3.736  -3.025  -3.993  0.00  0.00    +0.000 C 
BRANCH  18  19
ATOM     19  N   UNL     1       3.287  -4.367  -4.415  0.00  0.00    +0.000 NA
ATOM     20  H   UNL     1       3.693  -4.602  -5.322  0.00  0.00    +0.000 HD
ATOM     21  H   UNL     1       2.278  -4.346  -4.578  0.00  0.00    +0.000 HD
ENDBRANCH  18  19
BRANCH  18  22
ATOM     22  C   UNL     1       3.507  -1.975  -5.109  0.00  0.00    +0.000 C 
BRANCH  22  26
ATOM     23  F   UNL     1       2.183  -3.278  -7.255  0.00  0.00    +0.000 F 
ATOM     24  F   UNL     1      -0.724   0.398  -4.478  0.00  0.00    +0.000 F 
ATOM     25  F   UNL     1      -1.812  -0.869  -6.647  0.00  0.00    +0.000 F 
ATOM     26  C   UNL     1       2.063  -1.721  -5.472  0.00  0.00    +0.000 A 
ATOM     27  C   UNL     1       1.475  -2.374  -6.564  0.00  0.00    +0.000 A 
ATOM     28  C   UNL     1       1.296  -0.791  -4.753  0.00  0.00    +0.000 A 
ATOM     29  C   UNL     1      -0.009  -0.513  -5.154  0.00  0.00    +0.000 A 
ATOM     30  C   UNL     1       0.171  -2.099  -6.962  0.00  0.00    +0.000 A 
ATOM     31  C   UNL     1      -0.564  -1.157  -6.255  0.00  0.00    +0.000 A 
ENDBRANCH  22  26
ENDBRANCH  18  22
ENDBRANCH  17  18
ENDBRANCH  11  17
TORSDOF 6
