REMARK  Name = 24776705
REMARK  8 active torsions:
REMARK  status: ('A' for Active; 'I' for Inactive)
REMARK    1  A    between atoms: N_13  and  C_22
REMARK    2  A    between atoms: C_14  and  C_18
REMARK    3  A    between atoms: C_18  and  C_23
REMARK    4  A    between atoms: C_19  and  C_20
REMARK    5  A    between atoms: C_20  and  C_22
REMARK    6  A    between atoms: C_21  and  C_25
REMARK    7  A    between atoms: C_22  and  C_24
REMARK    8  A    between atoms: C_24  and  C_28
REMARK                            x       y       z     vdW  Elec       q    Type
REMARK                         _______ _______ _______ _____ _____    ______ ____
ROOT
ATOM      1  O   UNL     1       1.438   5.101  -0.685  0.00  0.00    +0.000 OA
ATOM      2  N   UNL     1      -0.254   6.529  -1.254  0.00  0.00    +0.000 N 
ATOM      3  N   UNL     1      -2.217   7.515  -2.993  0.00  0.00    +0.000 N 
ATOM      4  N   UNL     1      -1.228   6.944  -4.846  0.00  0.00    +0.000 NA
ATOM      5  N   UNL     1      -2.462   7.469  -5.150  0.00  0.00    +0.000 NA
ATOM      6  C   UNL     1      -0.003   6.297  -2.713  0.00  0.00    +0.000 C 
ATOM      7  C   UNL     1      -1.018   7.732  -0.900  0.00  0.00    +0.000 C 
ATOM      8  C   UNL     1      -1.106   6.924  -3.536  0.00  0.00    +0.000 A 
ATOM      9  C   UNL     1      -2.376   7.744  -1.579  0.00  0.00    +0.000 C 
ATOM     10  C   UNL     1       0.571   5.898  -0.334  0.00  0.00    +0.000 C 
ATOM     11  C   UNL     1      -3.073   7.793  -4.023  0.00  0.00    +0.000 A 
ENDROOT
BRANCH  11  15
ATOM     12  F   UNL     1      -4.752   8.627  -2.571  0.00  0.00    +0.000 F 
ATOM     13  F   UNL     1      -5.400   7.486  -4.300  0.00  0.00    +0.000 F 
ATOM     14  F   UNL     1      -4.608   9.508  -4.551  0.00  0.00    +0.000 F 
ATOM     15  C   UNL     1      -4.444   8.347  -3.868  0.00  0.00    +0.000 C 
ENDBRANCH  11  15
BRANCH   6  16
ATOM     16  C   UNL     1       0.174   4.807  -3.158  0.00  0.00    +0.000 C 
BRANCH  16  18
ATOM     17  F   UNL     1      -4.496   1.905  -1.931  0.00  0.00    +0.000 F 
ATOM     18  C   UNL     1      -1.024   3.931  -2.852  0.00  0.00    +0.000 A 
ATOM     19  C   UNL     1      -2.037   3.789  -3.812  0.00  0.00    +0.000 A 
ATOM     20  C   UNL     1      -1.173   3.307  -1.606  0.00  0.00    +0.000 A 
ATOM     21  C   UNL     1      -3.205   3.095  -3.502  0.00  0.00    +0.000 A 
ATOM     22  C   UNL     1      -2.342   2.624  -1.291  0.00  0.00    +0.000 A 
ATOM     23  C   UNL     1      -3.356   2.536  -2.244  0.00  0.00    +0.000 A 
ENDBRANCH  16  18
ENDBRANCH   6  16
BRANCH  10  24
ATOM     24  C   UNL     1       0.326   6.171   1.143  0.00  0.00    +0.000 C 
BRANCH  24  25
ATOM     25  C   UNL     1       1.280   5.358   2.031  0.00  0.00    +0.000 C 
BRANCH  25  26
ATOM     26  N   UNL     1       0.899   5.562   3.441  0.00  0.00    +0.000 NA
ATOM     27  H   UNL     1       1.487   4.975   4.035  0.00  0.00    +0.000 HD
ATOM     28  H   UNL     1      -0.057   5.247   3.600  0.00  0.00    +0.000 HD
ENDBRANCH  25  26
BRANCH  25  29
ATOM     29  C   UNL     1       2.748   5.796   1.797  0.00  0.00    +0.000 C 
BRANCH  29  33
ATOM     30  F   UNL     1       4.590   6.932   3.600  0.00  0.00    +0.000 F 
ATOM     31  F   UNL     1       4.954   1.551   2.820  0.00  0.00    +0.000 F 
ATOM     32  F   UNL     1       6.661   2.821   4.542  0.00  0.00    +0.000 F 
ATOM     33  C   UNL     1       3.768   4.976   2.540  0.00  0.00    +0.000 A 
ATOM     34  C   UNL     1       4.660   5.607   3.414  0.00  0.00    +0.000 A 
ATOM     35  C   UNL     1       3.882   3.593   2.331  0.00  0.00    +0.000 A 
ATOM     36  C   UNL     1       4.855   2.873   3.016  0.00  0.00    +0.000 A 
ATOM     37  C   UNL     1       5.635   4.889   4.093  0.00  0.00    +0.000 A 
ATOM     38  C   UNL     1       5.723   3.518   3.892  0.00  0.00    +0.000 A 
ENDBRANCH  29  33
ENDBRANCH  25  29
ENDBRANCH  24  25
ENDBRANCH  10  24
TORSDOF 8
