REMARK  Name = 10429788
REMARK  6 active torsions:
REMARK  status: ('A' for Active; 'I' for Inactive)
REMARK    1  A    between atoms: N_9  and  C_20
REMARK    2  A    between atoms: C_10  and  C_13
REMARK    3  A    between atoms: C_18  and  C_19
REMARK    4  A    between atoms: C_19  and  C_20
REMARK    5  A    between atoms: C_20  and  C_21
REMARK    6  A    between atoms: C_21  and  C_22
REMARK                            x       y       z     vdW  Elec       q    Type
REMARK                         _______ _______ _______ _____ _____    ______ ____
ROOT
ATOM      1  C   UNL     1       3.287   4.208  -0.976  0.00  0.00    +0.000 C 
ENDROOT
BRANCH   1  12
ATOM      2  O   UNL     1       5.521   3.900  -1.804  0.00  0.00    +0.000 OA
ATOM      3  N   UNL     1       5.444   2.638   2.883  0.00  0.00    +0.000 N 
ATOM      4  N   UNL     1       5.041   2.876   0.192  0.00  0.00    +0.000 N 
ATOM      5  N   UNL     1       5.731   2.643   4.187  0.00  0.00    +0.000 NA
ATOM      6  N   UNL     1       7.613   2.811   2.896  0.00  0.00    +0.000 NA
ATOM      7  C   UNL     1       7.063   2.763   4.163  0.00  0.00    +0.000 A 
ATOM      8  C   UNL     1       6.559   2.740   2.098  0.00  0.00    +0.000 A 
ATOM      9  C   UNL     1       4.081   2.562   2.408  0.00  0.00    +0.000 C 
ATOM     10  C   UNL     1       6.459   2.734   0.593  0.00  0.00    +0.000 C 
ATOM     11  C   UNL     1       4.095   2.074   0.971  0.00  0.00    +0.000 C 
ATOM     12  C   UNL     1       4.698   3.613  -0.936  0.00  0.00    +0.000 C 
BRANCH   7  13
ATOM     13  C   UNL     1       7.842   2.853   5.468  0.00  0.00    +0.000 C 
ATOM     14  C   UNL     1       9.084   3.718   5.525  0.00  0.00    +0.000 C 
ATOM     15  C   UNL     1       9.219   2.235   5.572  0.00  0.00    +0.000 C 
ENDBRANCH   7  13
ENDBRANCH   1  12
BRANCH   1  16
ATOM     16  C   UNL     1       2.473   3.964  -2.262  0.00  0.00    +0.000 C 
BRANCH  16  17
ATOM     17  N   UNL     1       1.187   4.679  -2.097  0.00  0.00    +0.000 NA
ATOM     18  H   UNL     1       1.366   5.677  -1.973  0.00  0.00    +0.000 HD
ATOM     19  H   UNL     1       0.644   4.608  -2.958  0.00  0.00    +0.000 HD
ENDBRANCH  16  17
BRANCH  16  20
ATOM     20  C   UNL     1       2.212   2.458  -2.507  0.00  0.00    +0.000 C 
BRANCH  20  24
ATOM     21  F   UNL     1       2.707   3.090  -5.263  0.00  0.00    +0.000 F 
ATOM     22  F   UNL     1      -1.812   0.239  -4.193  0.00  0.00    +0.000 F 
ATOM     23  F   UNL     1      -1.128   0.823  -6.782  0.00  0.00    +0.000 F 
ATOM     24  C   UNL     1       1.282   2.093  -3.651  0.00  0.00    +0.000 A 
ATOM     25  C   UNL     1       1.595   2.398  -4.983  0.00  0.00    +0.000 A 
ATOM     26  C   UNL     1       0.104   1.367  -3.399  0.00  0.00    +0.000 A 
ATOM     27  C   UNL     1      -0.705   0.948  -4.456  0.00  0.00    +0.000 A 
ATOM     28  C   UNL     1       0.786   1.982  -6.043  0.00  0.00    +0.000 A 
ATOM     29  C   UNL     1      -0.360   1.248  -5.768  0.00  0.00    +0.000 A 
ENDBRANCH  20  24
ENDBRANCH  16  20
ENDBRANCH   1  16
TORSDOF 6
