REMARK  Name = 9966883
REMARK  5 active torsions:
REMARK  status: ('A' for Active; 'I' for Inactive)
REMARK    1  A    between atoms: N_6  and  C_12
REMARK    2  A    between atoms: C_12  and  C_13
REMARK    3  A    between atoms: C_12  and  C_16
REMARK    4  A    between atoms: C_13  and  C_15
REMARK    5  A    between atoms: C_16  and  C_18
REMARK                            x       y       z     vdW  Elec       q    Type
REMARK                         _______ _______ _______ _____ _____    ______ ____
ROOT
ATOM      1  C   UNL     1      -4.171  -0.949   1.265  0.00  0.00    +0.000 C 
ENDROOT
BRANCH   1   2
ATOM      2  N   UNL     1      -4.699   0.430   1.362  0.00  0.00    +0.000 NA
ATOM      3  H   UNL     1      -5.240   0.540   2.219  0.00  0.00    +0.000 HD
ATOM      4  H   UNL     1      -3.922   1.089   1.434  0.00  0.00    +0.000 HD
ENDBRANCH   1   2
BRANCH   1   5
ATOM      5  C   UNL     1      -5.397  -1.880   1.181  0.00  0.00    +0.000 C 
BRANCH   5  15
ATOM      6  O   UNL     1      -3.978  -3.828   1.245  0.00  0.00    +0.000 OA
ATOM      7  N   UNL     1      -6.240  -4.210   1.319  0.00  0.00    +0.000 N 
ATOM      8  N   UNL     1      -8.209  -5.841   0.266  0.00  0.00    +0.000 N 
ATOM      9  N   UNL     1      -9.849  -4.427   0.520  0.00  0.00    +0.000 NA
ATOM     10  N   UNL     1     -10.312  -5.524  -0.179  0.00  0.00    +0.000 NA
ATOM     11  C   UNL     1      -6.064  -5.667   1.426  0.00  0.00    +0.000 C 
ATOM     12  C   UNL     1      -7.623  -3.730   1.484  0.00  0.00    +0.000 C 
ATOM     13  C   UNL     1      -6.875  -6.389   0.347  0.00  0.00    +0.000 C 
ATOM     14  C   UNL     1      -8.570  -4.623   0.771  0.00  0.00    +0.000 A 
ATOM     15  C   UNL     1      -5.122  -3.377   1.260  0.00  0.00    +0.000 C 
ATOM     16  C   UNL     1      -9.309  -6.357  -0.331  0.00  0.00    +0.000 A 
ENDBRANCH   5  15
ENDBRANCH   1   5
BRANCH   1  17
ATOM     17  C   UNL     1      -3.226  -1.070   0.042  0.00  0.00    +0.000 C 
BRANCH  17  20
ATOM     18  F   UNL     1       0.935   0.807   1.861  0.00  0.00    +0.000 F 
ATOM     19  F   UNL     1       1.088   2.598  -0.205  0.00  0.00    +0.000 F 
ATOM     20  C   UNL     1      -2.075  -0.075   0.006  0.00  0.00    +0.000 A 
ATOM     21  C   UNL     1      -1.073  -0.080   0.989  0.00  0.00    +0.000 A 
ATOM     22  C   UNL     1      -1.985   0.858  -1.044  0.00  0.00    +0.000 A 
ATOM     23  C   UNL     1      -0.013   0.827   0.913  0.00  0.00    +0.000 A 
ATOM     24  C   UNL     1      -0.919   1.759  -1.113  0.00  0.00    +0.000 A 
ATOM     25  C   UNL     1       0.065   1.737  -0.132  0.00  0.00    +0.000 A 
ENDBRANCH  17  20
ENDBRANCH   1  17
TORSDOF 5
