REMARK  Name = 10127139
REMARK  8 active torsions:
REMARK  status: ('A' for Active; 'I' for Inactive)
REMARK    1  A    between atoms: N_8  and  C_18
REMARK    2  A    between atoms: C_9  and  C_12
REMARK    3  A    between atoms: C_12  and  C_17
REMARK    4  A    between atoms: C_14  and  C_15
REMARK    5  A    between atoms: C_15  and  C_18
REMARK    6  A    between atoms: C_16  and  C_20
REMARK    7  A    between atoms: C_18  and  C_19
REMARK    8  A    between atoms: C_19  and  C_23
REMARK                            x       y       z     vdW  Elec       q    Type
REMARK                         _______ _______ _______ _____ _____    ______ ____
ROOT
ATOM      1  O   UNL     1      -4.703  -2.431   1.518  0.00  0.00    +0.000 OA
ATOM      2  N   UNL     1      -4.510  -4.130  -0.000  0.00  0.00    +0.000 N 
ATOM      3  N   UNL     1      -4.032  -3.890  -2.717  0.00  0.00    +0.000 N 
ATOM      4  N   UNL     1      -5.460  -5.419  -3.336  0.00  0.00    +0.000 NA
ATOM      5  N   UNL     1      -4.949  -4.810  -4.461  0.00  0.00    +0.000 NA
ATOM      6  C   UNL     1      -3.162  -3.665  -0.423  0.00  0.00    +0.000 C 
ATOM      7  C   UNL     1      -3.247  -3.059  -1.833  0.00  0.00    +0.000 C 
ATOM      8  C   UNL     1      -5.147  -5.147  -0.848  0.00  0.00    +0.000 C 
ATOM      9  C   UNL     1      -4.914  -4.845  -2.286  0.00  0.00    +0.000 A 
ATOM     10  C   UNL     1      -5.160  -3.472   1.039  0.00  0.00    +0.000 C 
ATOM     11  C   UNL     1      -4.100  -3.877  -4.080  0.00  0.00    +0.000 A 
ATOM     12  C   UNL     1      -3.345  -2.963  -4.965  0.00  0.00    +0.000 C 
ENDROOT
BRANCH   6  13
ATOM     13  C   UNL     1      -2.079  -4.779  -0.359  0.00  0.00    +0.000 C 
BRANCH  13  14
ATOM     14  C   UNL     1      -1.779  -5.202   1.060  0.00  0.00    +0.000 A 
ATOM     15  C   UNL     1      -2.430  -6.306   1.626  0.00  0.00    +0.000 A 
ATOM     16  C   UNL     1      -0.898  -4.453   1.852  0.00  0.00    +0.000 A 
ATOM     17  C   UNL     1      -2.252  -6.616   2.975  0.00  0.00    +0.000 A 
ATOM     18  C   UNL     1      -0.716  -4.769   3.199  0.00  0.00    +0.000 A 
ATOM     19  C   UNL     1      -1.407  -5.839   3.764  0.00  0.00    +0.000 A 
ENDBRANCH  13  14
ENDBRANCH   6  13
BRANCH  10  20
ATOM     20  C   UNL     1      -6.411  -4.096   1.652  0.00  0.00    +0.000 C 
BRANCH  20  21
ATOM     21  C   UNL     1      -7.757  -3.426   1.318  0.00  0.00    +0.000 C 
BRANCH  21  22
ATOM     22  N   UNL     1      -8.138  -3.636  -0.088  0.00  0.00    +0.000 NA
ATOM     23  H   UNL     1      -8.313  -4.626  -0.265  0.00  0.00    +0.000 HD
ATOM     24  H   UNL     1      -9.028  -3.171  -0.281  0.00  0.00    +0.000 HD
ENDBRANCH  21  22
BRANCH  21  25
ATOM     25  C   UNL     1      -7.841  -1.917   1.642  0.00  0.00    +0.000 C 
BRANCH  25  28
ATOM     26  F   UNL     1      -5.568   0.635   5.121  0.00  0.00    +0.000 F 
ATOM     27  F   UNL     1      -7.300  -0.295   7.029  0.00  0.00    +0.000 F 
ATOM     28  C   UNL     1      -7.677  -1.538   3.097  0.00  0.00    +0.000 A 
ATOM     29  C   UNL     1      -6.657  -0.647   3.468  0.00  0.00    +0.000 A 
ATOM     30  C   UNL     1      -8.564  -2.003   4.083  0.00  0.00    +0.000 A 
ATOM     31  C   UNL     1      -6.533  -0.234   4.790  0.00  0.00    +0.000 A 
ATOM     32  C   UNL     1      -8.428  -1.589   5.412  0.00  0.00    +0.000 A 
ATOM     33  C   UNL     1      -7.413  -0.703   5.755  0.00  0.00    +0.000 A 
ENDBRANCH  25  28
ENDBRANCH  21  25
ENDBRANCH  20  21
ENDBRANCH  10  20
TORSDOF 7
