REMARK  Name = 20628255
REMARK  6 active torsions:
REMARK  status: ('A' for Active; 'I' for Inactive)
REMARK    1  A    between atoms: N_6  and  C_13
REMARK    2  A    between atoms: C_12  and  C_13
REMARK    3  A    between atoms: C_12  and  C_14
REMARK    4  A    between atoms: C_13  and  C_15
REMARK    5  A    between atoms: C_15  and  C_17
REMARK    6  A    between atoms: C_16  and  C_18
REMARK                            x       y       z     vdW  Elec       q    Type
REMARK                         _______ _______ _______ _____ _____    ______ ____
ROOT
ATOM      1  C   UNL     1       1.430  -4.550   1.144  0.00  0.00    +0.000 C 
ENDROOT
BRANCH   1  11
ATOM      2  O   UNL     1       3.498  -3.769   2.037  0.00  0.00    +0.000 OA
ATOM      3  N   UNL     1       3.583  -4.457  -0.139  0.00  0.00    +0.000 N 
ATOM      4  N   UNL     1       4.728  -3.235  -2.330  0.00  0.00    +0.000 N 
ATOM      5  N   UNL     1       3.152  -3.778  -3.738  0.00  0.00    +0.000 NA
ATOM      6  N   UNL     1       3.999  -2.881  -4.348  0.00  0.00    +0.000 NA
ATOM      7  C   UNL     1       5.047  -4.351  -0.177  0.00  0.00    +0.000 C 
ATOM      8  C   UNL     1       5.485  -3.212  -1.096  0.00  0.00    +0.000 C 
ATOM      9  C   UNL     1       2.958  -4.781  -1.430  0.00  0.00    +0.000 C 
ATOM     10  C   UNL     1       3.577  -3.958  -2.507  0.00  0.00    +0.000 A 
ATOM     11  C   UNL     1       2.910  -4.208   1.048  0.00  0.00    +0.000 C 
ATOM     12  C   UNL     1       4.926  -2.526  -3.480  0.00  0.00    +0.000 A 
ATOM     13  C   UNL     1       5.979  -1.509  -3.693  0.00  0.00    +0.000 C 
ENDBRANCH   1  11
BRANCH   1  14
ATOM     14  C   UNL     1       0.488  -3.338   1.274  0.00  0.00    +0.000 C 
BRANCH  14  15
ATOM     15  N   UNL     1      -0.881  -3.880   1.408  0.00  0.00    +0.000 NA
ATOM     16  H   UNL     1      -0.945  -4.435   2.261  0.00  0.00    +0.000 HD
ATOM     17  H   UNL     1      -1.538  -3.108   1.532  0.00  0.00    +0.000 HD
ENDBRANCH  14  15
BRANCH  14  18
ATOM     18  C   UNL     1       0.581  -2.374   0.066  0.00  0.00    +0.000 C 
BRANCH  18  20
ATOM     19  F   UNL     1       0.381  -0.256   1.996  0.00  0.00    +0.000 F 
ATOM     20  C   UNL     1      -0.439  -1.254   0.008  0.00  0.00    +0.000 A 
ATOM     21  C   UNL     1      -0.479  -0.238   0.968  0.00  0.00    +0.000 A 
ATOM     22  C   UNL     1      -1.357  -1.190  -1.053  0.00  0.00    +0.000 A 
ATOM     23  C   UNL     1      -1.393   0.812   0.877  0.00  0.00    +0.000 A 
ATOM     24  C   UNL     1      -2.274  -0.140  -1.153  0.00  0.00    +0.000 A 
ATOM     25  C   UNL     1      -2.290   0.863  -0.189  0.00  0.00    +0.000 A 
ENDBRANCH  18  20
ENDBRANCH  14  18
ENDBRANCH   1  14
TORSDOF 5
