REMARK  Name = 24777438
REMARK  13 active torsions:
REMARK  status: ('A' for Active; 'I' for Inactive)
REMARK    1  A    between atoms: O_8  and  C_28
REMARK    2  A    between atoms: O_8  and  C_29
REMARK    3  A    between atoms: N_14  and  C_24
REMARK    4  A    between atoms: C_15  and  C_20
REMARK    5  A    between atoms: C_16  and  C_21
REMARK    6  A    between atoms: C_19  and  C_22
REMARK    7  A    between atoms: C_22  and  C_24
REMARK    8  A    between atoms: C_23  and  C_26
REMARK    9  A    between atoms: C_24  and  C_25
REMARK   10  A    between atoms: C_25  and  C_27
REMARK   11  A    between atoms: C_29  and  C_32
REMARK   12  A    between atoms: C_29  and  C_33
REMARK   13  A    between atoms: C_29  and  C_34
REMARK                            x       y       z     vdW  Elec       q    Type
REMARK                         _______ _______ _______ _____ _____    ______ ____
ROOT
ATOM      1  C   UNL     1       5.128   2.115   6.245  0.00  0.00    +0.000 C 
ENDROOT
BRANCH   1   3
ATOM      2  O   UNL     1       4.093   0.276   8.335  0.00  0.00    +0.000 OA
ATOM      3  N   UNL     1       3.793   1.460   6.393  0.00  0.00    +0.000 N 
ATOM      4  C   UNL     1       3.365   0.667   7.438  0.00  0.00    +0.000 C 
ATOM      5  H   UNL     1       3.013   1.847   5.866  0.00  0.00    +0.000 HD
BRANCH   4   6
ATOM      6  O   UNL     1       2.027   0.374   7.302  0.00  0.00    +0.000 OA
BRANCH   6   7
ATOM      7  C   UNL     1       1.338  -0.600   8.164  0.00  0.00    +0.000 C 
ATOM      8  C   UNL     1       1.323  -0.161   9.633  0.00  0.00    +0.000 C 
ATOM      9  C   UNL     1      -0.141  -0.754   7.703  0.00  0.00    +0.000 C 
ATOM     10  C   UNL     1       2.002  -1.973   8.011  0.00  0.00    +0.000 C 
ENDBRANCH   6   7
ENDBRANCH   4   6
ENDBRANCH   1   3
BRANCH   1  11
ATOM     11  C   UNL     1       5.580   2.188   4.750  0.00  0.00    +0.000 C 
BRANCH  11  21
ATOM     12  O   UNL     1       7.765   3.006   5.413  0.00  0.00    +0.000 OA
ATOM     13  N   UNL     1       7.430   2.848   3.162  0.00  0.00    +0.000 N 
ATOM     14  N   UNL     1       8.546   1.717   0.872  0.00  0.00    +0.000 N 
ATOM     15  N   UNL     1      10.560   2.515   1.195  0.00  0.00    +0.000 NA
ATOM     16  N   UNL     1      10.601   1.624   0.158  0.00  0.00    +0.000 NA
ATOM     17  C   UNL     1       7.107   1.567   1.066  0.00  0.00    +0.000 C 
ATOM     18  C   UNL     1       8.805   3.309   2.855  0.00  0.00    +0.000 C 
ATOM     19  C   UNL     1       6.587   2.686   1.983  0.00  0.00    +0.000 C 
ATOM     20  C   UNL     1       9.317   2.542   1.667  0.00  0.00    +0.000 A 
ATOM     21  C   UNL     1       7.003   2.723   4.489  0.00  0.00    +0.000 C 
ATOM     22  C   UNL     1       6.291   1.632  -0.230  0.00  0.00    +0.000 C 
ATOM     23  C   UNL     1       8.825   4.822   2.616  0.00  0.00    +0.000 C 
ATOM     24  C   UNL     1       9.401   1.091  -0.007  0.00  0.00    +0.000 A 
BRANCH  24  28
ATOM     25  F   UNL     1       7.766  -0.410  -0.876  0.00  0.00    +0.000 F 
ATOM     26  F   UNL     1       9.806  -1.107  -0.802  0.00  0.00    +0.000 F 
ATOM     27  F   UNL     1       9.220   0.406  -2.266  0.00  0.00    +0.000 F 
ATOM     28  C   UNL     1       9.054   0.010  -0.976  0.00  0.00    +0.000 C 
ENDBRANCH  24  28
ENDBRANCH  11  21
ENDBRANCH   1  11
BRANCH   1  29
ATOM     29  C   UNL     1       5.187   3.505   6.952  0.00  0.00    +0.000 C 
BRANCH  29  33
ATOM     30  F   UNL     1       2.557   3.447   5.585  0.00  0.00    +0.000 F 
ATOM     31  F   UNL     1       4.909   8.314   6.222  0.00  0.00    +0.000 F 
ATOM     32  F   UNL     1       2.525   8.073   4.892  0.00  0.00    +0.000 F 
ATOM     33  C   UNL     1       4.425   4.694   6.392  0.00  0.00    +0.000 A 
ATOM     34  C   UNL     1       3.178   4.619   5.756  0.00  0.00    +0.000 A 
ATOM     35  C   UNL     1       4.984   5.978   6.564  0.00  0.00    +0.000 A 
ATOM     36  C   UNL     1       4.342   7.111   6.065  0.00  0.00    +0.000 A 
ATOM     37  C   UNL     1       2.538   5.748   5.249  0.00  0.00    +0.000 A 
ATOM     38  C   UNL     1       3.130   6.992   5.400  0.00  0.00    +0.000 A 
ENDBRANCH  29  33
ENDBRANCH   1  29
TORSDOF 8
