REMARK  Name = 20628267
REMARK  7 active torsions:
REMARK  status: ('A' for Active; 'I' for Inactive)
REMARK    1  A    between atoms: N_11  and  C_18
REMARK    2  A    between atoms: C_16  and  C_17
REMARK    3  A    between atoms: C_16  and  C_18
REMARK    4  A    between atoms: C_18  and  C_20
REMARK    5  A    between atoms: C_19  and  C_21
REMARK    6  A    between atoms: C_20  and  C_22
REMARK    7  A    between atoms: C_21  and  C_23
REMARK                            x       y       z     vdW  Elec       q    Type
REMARK                         _______ _______ _______ _____ _____    ______ ____
ROOT
ATOM      1  O   UNL     1       8.148  -3.855  -1.130  0.00  0.00    +0.000 OA
ATOM      2  N   UNL     1       6.415  -3.824   0.355  0.00  0.00    +0.000 N 
ATOM      3  N   UNL     1       4.583  -2.089   1.521  0.00  0.00    +0.000 N 
ATOM      4  N   UNL     1       6.011  -0.536   2.051  0.00  0.00    +0.000 NA
ATOM      5  N   UNL     1       4.744  -0.094   2.366  0.00  0.00    +0.000 NA
ATOM      6  C   UNL     1       5.207  -4.387   0.971  0.00  0.00    +0.000 C 
ATOM      7  C   UNL     1       4.090  -3.347   1.002  0.00  0.00    +0.000 C 
ATOM      8  C   UNL     1       6.982  -2.634   1.023  0.00  0.00    +0.000 C 
ATOM      9  C   UNL     1       5.902  -1.737   1.525  0.00  0.00    +0.000 A 
ATOM     10  C   UNL     1       7.136  -4.393  -0.685  0.00  0.00    +0.000 C 
ATOM     11  C   UNL     1       3.884  -1.039   2.042  0.00  0.00    +0.000 A 
ENDROOT
BRANCH  10  12
ATOM     12  C   UNL     1       6.616  -5.707  -1.264  0.00  0.00    +0.000 C 
BRANCH  12  13
ATOM     13  C   UNL     1       7.466  -6.255  -2.430  0.00  0.00    +0.000 C 
BRANCH  13  14
ATOM     14  N   UNL     1       6.781  -7.408  -3.047  0.00  0.00    +0.000 NA
ATOM     15  H   UNL     1       5.813  -7.193  -3.273  0.00  0.00    +0.000 HD
ATOM     16  H   UNL     1       6.790  -8.218  -2.430  0.00  0.00    +0.000 HD
ENDBRANCH  13  14
BRANCH  13  17
ATOM     17  C   UNL     1       8.892  -6.669  -1.981  0.00  0.00    +0.000 C 
BRANCH  17  20
ATOM     18  F   UNL     1      11.711 -10.234  -3.785  0.00  0.00    +0.000 F 
ATOM     19  F   UNL     1      12.282  -8.736  -6.006  0.00  0.00    +0.000 F 
ATOM     20  C   UNL     1       9.765  -7.241  -3.080  0.00  0.00    +0.000 A 
ATOM     21  C   UNL     1      10.329  -8.519  -2.945  0.00  0.00    +0.000 A 
ATOM     22  C   UNL     1      10.061  -6.485  -4.228  0.00  0.00    +0.000 A 
ATOM     23  C   UNL     1      11.171  -9.017  -3.936  0.00  0.00    +0.000 A 
ATOM     24  C   UNL     1      10.902  -6.995  -5.220  0.00  0.00    +0.000 A 
ATOM     25  C   UNL     1      11.458  -8.259  -5.063  0.00  0.00    +0.000 A 
ENDBRANCH  17  20
ENDBRANCH  13  17
ENDBRANCH  12  13
ENDBRANCH  10  12
BRANCH  11  26
ATOM     26  C   UNL     1       2.410  -0.980   2.201  0.00  0.00    +0.000 C 
BRANCH  26  30
ATOM     27  F   UNL     1       2.926  -2.040   4.294  0.00  0.00    +0.000 F 
ATOM     28  F   UNL     1       1.143  -2.669   3.233  0.00  0.00    +0.000 F 
ATOM     29  F   UNL     1       1.184  -0.724   4.216  0.00  0.00    +0.000 F 
ATOM     30  C   UNL     1       1.930  -1.595   3.501  0.00  0.00    +0.000 C 
ENDBRANCH  26  30
ENDBRANCH  11  26
TORSDOF 7
