REMARK  Name = 10222794
REMARK  7 active torsions:
REMARK  status: ('A' for Active; 'I' for Inactive)
REMARK    1  A    between atoms: N_11  and  C_18
REMARK    2  A    between atoms: C_16  and  C_17
REMARK    3  A    between atoms: C_16  and  C_18
REMARK    4  A    between atoms: C_18  and  C_20
REMARK    5  A    between atoms: C_19  and  C_21
REMARK    6  A    between atoms: C_20  and  C_22
REMARK    7  A    between atoms: C_21  and  C_23
REMARK                            x       y       z     vdW  Elec       q    Type
REMARK                         _______ _______ _______ _____ _____    ______ ____
ROOT
ATOM      1  O   UNL     1       5.024  -4.390  -5.256  0.00  0.00    +0.000 OA
ATOM      2  N   UNL     1       4.628  -6.216  -3.932  0.00  0.00    +0.000 N 
ATOM      3  N   UNL     1       5.108  -8.920  -3.423  0.00  0.00    +0.000 N 
ATOM      4  N   UNL     1       3.593  -9.114  -1.866  0.00  0.00    +0.000 NA
ATOM      5  N   UNL     1       4.124 -10.357  -2.116  0.00  0.00    +0.000 NA
ATOM      6  C   UNL     1       5.958  -6.763  -4.239  0.00  0.00    +0.000 C 
ATOM      7  C   UNL     1       5.918  -8.280  -4.433  0.00  0.00    +0.000 C 
ATOM      8  C   UNL     1       3.964  -6.784  -2.750  0.00  0.00    +0.000 C 
ATOM      9  C   UNL     1       4.186  -8.252  -2.662  0.00  0.00    +0.000 A 
ATOM     10  C   UNL     1       4.273  -4.984  -4.485  0.00  0.00    +0.000 C 
ATOM     11  C   UNL     1       5.037 -10.239  -3.061  0.00  0.00    +0.000 A 
ENDROOT
BRANCH  10  12
ATOM     12  C   UNL     1       2.908  -4.417  -4.099  0.00  0.00    +0.000 C 
BRANCH  12  13
ATOM     13  C   UNL     1       2.510  -3.097  -4.805  0.00  0.00    +0.000 C 
BRANCH  13  14
ATOM     14  N   UNL     1       1.241  -2.618  -4.215  0.00  0.00    +0.000 NA
ATOM     15  H   UNL     1       1.159  -2.888  -3.236  0.00  0.00    +0.000 HD
ATOM     16  H   UNL     1       0.443  -3.024  -4.702  0.00  0.00    +0.000 HD
ENDBRANCH  13  14
BRANCH  13  17
ATOM     17  C   UNL     1       2.363  -3.289  -6.339  0.00  0.00    +0.000 C 
BRANCH  17  20
ATOM     18  F   UNL     1       2.166  -3.634  -9.068  0.00  0.00    +0.000 F 
ATOM     19  F   UNL     1       0.925   1.353  -7.320  0.00  0.00    +0.000 F 
ATOM     20  C   UNL     1       1.945  -2.141  -7.238  0.00  0.00    +0.000 A 
ATOM     21  C   UNL     1       1.870  -2.407  -8.617  0.00  0.00    +0.000 A 
ATOM     22  C   UNL     1       1.625  -0.848  -6.812  0.00  0.00    +0.000 A 
ATOM     23  C   UNL     1       1.242   0.122  -7.743  0.00  0.00    +0.000 A 
ATOM     24  C   UNL     1       1.498  -1.438  -9.546  0.00  0.00    +0.000 A 
ATOM     25  C   UNL     1       1.178  -0.161  -9.104  0.00  0.00    +0.000 A 
ENDBRANCH  17  20
ENDBRANCH  13  17
ENDBRANCH  12  13
ENDBRANCH  10  12
BRANCH  11  26
ATOM     26  C   UNL     1       5.879 -11.348  -3.586  0.00  0.00    +0.000 C 
BRANCH  26  30
ATOM     27  F   UNL     1       4.807 -10.845  -5.673  0.00  0.00    +0.000 F 
ATOM     28  F   UNL     1       5.419 -12.906  -5.316  0.00  0.00    +0.000 F 
ATOM     29  F   UNL     1       6.915 -11.366  -5.697  0.00  0.00    +0.000 F 
ATOM     30  C   UNL     1       5.737 -11.616  -5.071  0.00  0.00    +0.000 C 
ENDBRANCH  26  30
ENDBRANCH  11  26
TORSDOF 7
