REMARK  Name = 11432118
REMARK  6 active torsions:
REMARK  status: ('A' for Active; 'I' for Inactive)
REMARK    1  A    between atoms: N_11  and  C_18
REMARK    2  A    between atoms: C_17  and  C_18
REMARK    3  A    between atoms: C_17  and  C_19
REMARK    4  A    between atoms: C_18  and  C_20
REMARK    5  A    between atoms: C_20  and  C_22
REMARK    6  A    between atoms: C_21  and  C_23
REMARK                            x       y       z     vdW  Elec       q    Type
REMARK                         _______ _______ _______ _____ _____    ______ ____
ROOT
ATOM      1  C   UNL     1       7.843  -2.473   3.583  0.00  0.00    +0.000 C 
ENDROOT
BRANCH   1  11
ATOM      2  O   UNL     1       7.149  -4.016   1.865  0.00  0.00    +0.000 OA
ATOM      3  N   UNL     1       5.664  -3.656   3.572  0.00  0.00    +0.000 N 
ATOM      4  N   UNL     1       3.852  -4.938   5.238  0.00  0.00    +0.000 N 
ATOM      5  N   UNL     1       2.856  -6.085   3.677  0.00  0.00    +0.000 NA
ATOM      6  N   UNL     1       2.322  -6.441   4.895  0.00  0.00    +0.000 NA
ATOM      7  C   UNL     1       5.247  -2.982   4.801  0.00  0.00    +0.000 C 
ATOM      8  C   UNL     1       4.773  -3.998   5.832  0.00  0.00    +0.000 C 
ATOM      9  C   UNL     1       4.636  -4.463   2.894  0.00  0.00    +0.000 C 
ATOM     10  C   UNL     1       3.786  -5.180   3.891  0.00  0.00    +0.000 A 
ATOM     11  C   UNL     1       6.872  -3.441   2.919  0.00  0.00    +0.000 C 
ATOM     12  C   UNL     1       2.926  -5.742   5.842  0.00  0.00    +0.000 A 
BRANCH  12  16
ATOM     13  F   UNL     1       3.473  -4.930   8.002  0.00  0.00    +0.000 F 
ATOM     14  F   UNL     1       2.871  -7.005   7.842  0.00  0.00    +0.000 F 
ATOM     15  F   UNL     1       1.393  -5.408   7.606  0.00  0.00    +0.000 F 
ATOM     16  C   UNL     1       2.666  -5.777   7.304  0.00  0.00    +0.000 C 
ENDBRANCH  12  16
ENDBRANCH   1  11
BRANCH   1  17
ATOM     17  C   UNL     1       9.177  -2.299   2.839  0.00  0.00    +0.000 C 
BRANCH  17  18
ATOM     18  N   UNL     1       8.995  -1.775   1.475  0.00  0.00    +0.000 NA
ATOM     19  H   UNL     1       9.909  -1.604   1.053  0.00  0.00    +0.000 HD
ATOM     20  H   UNL     1       8.593  -2.534   0.910  0.00  0.00    +0.000 HD
ENDBRANCH  17  18
BRANCH  17  21
ATOM     21  C   UNL     1      10.095  -1.343   3.644  0.00  0.00    +0.000 C 
BRANCH  21  25
ATOM     22  F   UNL     1      11.860  -3.554   3.469  0.00  0.00    +0.000 F 
ATOM     23  F   UNL     1      13.697   1.178   1.495  0.00  0.00    +0.000 F 
ATOM     24  F   UNL     1      15.218  -1.089   1.297  0.00  0.00    +0.000 F 
ATOM     25  C   UNL     1      11.492  -1.241   3.077  0.00  0.00    +0.000 A 
ATOM     26  C   UNL     1      12.301  -2.382   2.991  0.00  0.00    +0.000 A 
ATOM     27  C   UNL     1      11.986  -0.023   2.587  0.00  0.00    +0.000 A 
ATOM     28  C   UNL     1      13.245   0.019   1.991  0.00  0.00    +0.000 A 
ATOM     29  C   UNL     1      13.560  -2.340   2.395  0.00  0.00    +0.000 A 
ATOM     30  C   UNL     1      14.018  -1.133   1.892  0.00  0.00    +0.000 A 
ENDBRANCH  21  25
ENDBRANCH  17  21
ENDBRANCH   1  17
TORSDOF 6
