REMARK  Name = 9953181
REMARK  6 active torsions:
REMARK  status: ('A' for Active; 'I' for Inactive)
REMARK    1  A    between atoms: N_12  and  C_16
REMARK    2  A    between atoms: C_16  and  C_17
REMARK    3  A    between atoms: C_16  and  C_20
REMARK    4  A    between atoms: C_17  and  C_19
REMARK    5  A    between atoms: C_20  and  C_21
REMARK    6  A    between atoms: C_22  and  C_25
REMARK                            x       y       z     vdW  Elec       q    Type
REMARK                         _______ _______ _______ _____ _____    ______ ____
ROOT
ATOM      1  C   UNL     1       3.259   4.320  -0.995  0.00  0.00    +0.000 C 
ENDROOT
BRANCH   1  11
ATOM      2  O   UNL     1       4.885   2.567  -1.262  0.00  0.00    +0.000 OA
ATOM      3  N   UNL     1       5.683   4.575  -0.490  0.00  0.00    +0.000 N 
ATOM      4  N   UNL     1       7.345   5.422   1.527  0.00  0.00    +0.000 N 
ATOM      5  N   UNL     1       6.300   7.282   1.960  0.00  0.00    +0.000 NA
ATOM      6  N   UNL     1       7.982   5.871   2.618  0.00  0.00    +0.000 NA
ATOM      7  C   UNL     1       7.076   4.100  -0.494  0.00  0.00    +0.000 C 
ATOM      8  C   UNL     1       5.510   5.977  -0.073  0.00  0.00    +0.000 C 
ATOM      9  C   UNL     1       7.666   4.151   0.913  0.00  0.00    +0.000 C 
ATOM     10  C   UNL     1       6.346   6.261   1.131  0.00  0.00    +0.000 A 
ATOM     11  C   UNL     1       4.661   3.728  -0.922  0.00  0.00    +0.000 C 
ATOM     12  C   UNL     1       7.314   7.017   2.880  0.00  0.00    +0.000 A 
BRANCH  12  16
ATOM     13  F   UNL     1       6.804   9.004   4.127  0.00  0.00    +0.000 F 
ATOM     14  F   UNL     1       7.489   7.268   5.253  0.00  0.00    +0.000 F 
ATOM     15  F   UNL     1       8.896   8.402   4.025  0.00  0.00    +0.000 F 
ATOM     16  C   UNL     1       7.623   7.917   4.062  0.00  0.00    +0.000 C 
ENDBRANCH  12  16
ENDBRANCH   1  11
BRANCH   1  17
ATOM     17  C   UNL     1       2.097   3.332  -1.240  0.00  0.00    +0.000 C 
BRANCH  17  18
ATOM     18  N   UNL     1       0.879   4.157  -1.406  0.00  0.00    +0.000 NA
ATOM     19  H   UNL     1       0.973   4.747  -2.233  0.00  0.00    +0.000 HD
ATOM     20  H   UNL     1       0.077   3.554  -1.588  0.00  0.00    +0.000 HD
ENDBRANCH  17  18
BRANCH  17  21
ATOM     21  C   UNL     1       1.922   2.358  -0.046  0.00  0.00    +0.000 C 
BRANCH  21  25
ATOM     22  F   UNL     1       1.352   0.375  -2.037  0.00  0.00    +0.000 F 
ATOM     23  F   UNL     1      -2.221   0.821   2.053  0.00  0.00    +0.000 F 
ATOM     24  F   UNL     1      -2.565  -1.087   0.120  0.00  0.00    +0.000 F 
ATOM     25  C   UNL     1       0.687   1.477  -0.045  0.00  0.00    +0.000 A 
ATOM     26  C   UNL     1       0.480   0.501  -1.029  0.00  0.00    +0.000 A 
ATOM     27  C   UNL     1      -0.253   1.581   0.995  0.00  0.00    +0.000 A 
ATOM     28  C   UNL     1      -1.347   0.720   1.044  0.00  0.00    +0.000 A 
ATOM     29  C   UNL     1      -0.615  -0.362  -0.984  0.00  0.00    +0.000 A 
ATOM     30  C   UNL     1      -1.520  -0.250   0.062  0.00  0.00    +0.000 A 
ENDBRANCH  21  25
ENDBRANCH  17  21
ENDBRANCH   1  17
TORSDOF 6
