REMARK  Name = 24776692
REMARK  8 active torsions:
REMARK  status: ('A' for Active; 'I' for Inactive)
REMARK    1  A    between atoms: N_12  and  C_20
REMARK    2  A    between atoms: C_13  and  C_17
REMARK    3  A    between atoms: C_17  and  C_23
REMARK    4  A    between atoms: C_18  and  C_19
REMARK    5  A    between atoms: C_19  and  C_20
REMARK    6  A    between atoms: C_20  and  C_22
REMARK    7  A    between atoms: C_21  and  C_24
REMARK    8  A    between atoms: C_22  and  C_25
REMARK                            x       y       z     vdW  Elec       q    Type
REMARK                         _______ _______ _______ _____ _____    ______ ____
ROOT
ATOM      1  O   UNL     1       2.028   5.117  -5.784  0.00  0.00    +0.000 OA
ATOM      2  N   UNL     1       3.253   6.201  -4.155  0.00  0.00    +0.000 N 
ATOM      3  N   UNL     1       3.636   8.051  -2.093  0.00  0.00    +0.000 N 
ATOM      4  N   UNL     1       2.205   9.527  -2.807  0.00  0.00    +0.000 NA
ATOM      5  N   UNL     1       2.692   9.942  -1.591  0.00  0.00    +0.000 NA
ATOM      6  C   UNL     1       2.543   7.509  -4.333  0.00  0.00    +0.000 C 
ATOM      7  C   UNL     1       4.570   6.309  -3.511  0.00  0.00    +0.000 C 
ATOM      8  C   UNL     1       4.453   6.862  -2.101  0.00  0.00    +0.000 C 
ATOM      9  C   UNL     1       2.759   8.369  -3.100  0.00  0.00    +0.000 A 
ATOM     10  C   UNL     1       2.922   5.093  -4.943  0.00  0.00    +0.000 C 
ATOM     11  C   UNL     1       3.560   9.045  -1.155  0.00  0.00    +0.000 A 
ENDROOT
BRANCH  11  15
ATOM     12  F   UNL     1       5.164   8.021   0.262  0.00  0.00    +0.000 F 
ATOM     13  F   UNL     1       3.541   9.104   1.212  0.00  0.00    +0.000 F 
ATOM     14  F   UNL     1       5.134  10.191   0.183  0.00  0.00    +0.000 F 
ATOM     15  C   UNL     1       4.337   9.094   0.112  0.00  0.00    +0.000 C 
ENDBRANCH  11  15
BRANCH   6  16
ATOM     16  C   UNL     1       1.033   7.483  -4.694  0.00  0.00    +0.000 C 
BRANCH  16  17
ATOM     17  C   UNL     1       0.151   6.718  -3.739  0.00  0.00    +0.000 C 
ATOM     18  C   UNL     1      -0.869   7.271  -3.072  0.00  0.00    +0.000 C 
ENDBRANCH  16  17
ENDBRANCH   6  16
BRANCH  10  19
ATOM     19  C   UNL     1       3.707   3.810  -4.675  0.00  0.00    +0.000 C 
BRANCH  19  20
ATOM     20  C   UNL     1       3.206   2.559  -5.427  0.00  0.00    +0.000 C 
BRANCH  20  21
ATOM     21  N   UNL     1       3.987   1.404  -4.930  0.00  0.00    +0.000 NA
ATOM     22  H   UNL     1       3.465   0.547  -5.114  0.00  0.00    +0.000 HD
ATOM     23  H   UNL     1       4.090   1.449  -3.916  0.00  0.00    +0.000 HD
ENDBRANCH  20  21
BRANCH  20  24
ATOM     24  C   UNL     1       3.416   2.704  -6.955  0.00  0.00    +0.000 C 
BRANCH  24  28
ATOM     25  F   UNL     1       0.760   1.554  -6.867  0.00  0.00    +0.000 F 
ATOM     26  F   UNL     1       4.030  -0.050 -10.919  0.00  0.00    +0.000 F 
ATOM     27  F   UNL     1       1.432  -0.910 -10.815  0.00  0.00    +0.000 F 
ATOM     28  C   UNL     1       2.911   1.615  -7.876  0.00  0.00    +0.000 A 
ATOM     29  C   UNL     1       1.590   1.145  -7.834  0.00  0.00    +0.000 A 
ATOM     30  C   UNL     1       3.735   1.178  -8.928  0.00  0.00    +0.000 A 
ATOM     31  C   UNL     1       3.237   0.320  -9.906  0.00  0.00    +0.000 A 
ATOM     32  C   UNL     1       1.092   0.283  -8.810  0.00  0.00    +0.000 A 
ATOM     33  C   UNL     1       1.917  -0.115  -9.853  0.00  0.00    +0.000 A 
ENDBRANCH  24  28
ENDBRANCH  20  24
ENDBRANCH  19  20
ENDBRANCH  10  19
TORSDOF 8
