REMARK  Name = 23647141
REMARK  8 active torsions:
REMARK  status: ('A' for Active; 'I' for Inactive)
REMARK    1  A    between atoms: S_1  and  C_28
REMARK    2  A    between atoms: S_1  and  C_29
REMARK    3  A    between atoms: N_11  and  C_18
REMARK    4  A    between atoms: C_17  and  C_18
REMARK    5  A    between atoms: C_17  and  C_19
REMARK    6  A    between atoms: C_18  and  C_20
REMARK    7  A    between atoms: C_20  and  C_22
REMARK    8  A    between atoms: C_21  and  C_23
REMARK                            x       y       z     vdW  Elec       q    Type
REMARK                         _______ _______ _______ _____ _____    ______ ____
ROOT
ATOM      1  C   UNL     1      -1.712  -7.203   2.984  0.00  0.00    +0.000 C 
ENDROOT
BRANCH   1  11
ATOM      2  O   UNL     1      -2.827  -5.679   4.487  0.00  0.00    +0.000 OA
ATOM      3  N   UNL     1      -2.998  -7.912   4.988  0.00  0.00    +0.000 N 
ATOM      4  N   UNL     1      -2.846  -9.715   7.087  0.00  0.00    +0.000 N 
ATOM      5  N   UNL     1      -2.344 -11.442   5.848  0.00  0.00    +0.000 NA
ATOM      6  N   UNL     1      -2.202 -11.794   7.167  0.00  0.00    +0.000 NA
ATOM      7  C   UNL     1      -3.828  -7.655   6.171  0.00  0.00    +0.000 C 
ATOM      8  C   UNL     1      -3.256  -8.361   7.403  0.00  0.00    +0.000 C 
ATOM      9  C   UNL     1      -2.886  -9.326   4.602  0.00  0.00    +0.000 C 
ATOM     10  C   UNL     1      -2.691 -10.176   5.805  0.00  0.00    +0.000 A 
ATOM     11  C   UNL     1      -2.566  -6.843   4.196  0.00  0.00    +0.000 C 
ATOM     12  C   UNL     1      -2.465 -10.737   7.918  0.00  0.00    +0.000 A 
BRANCH  12  16
ATOM     13  F   UNL     1      -2.706  -9.425   9.874  0.00  0.00    +0.000 F 
ATOM     14  F   UNL     1      -3.097 -11.557  10.043  0.00  0.00    +0.000 F 
ATOM     15  F   UNL     1      -1.051 -10.831   9.804  0.00  0.00    +0.000 F 
ATOM     16  C   UNL     1      -2.332 -10.643   9.394  0.00  0.00    +0.000 C 
ENDBRANCH  12  16
ENDBRANCH   1  11
BRANCH   1  17
ATOM     17  C   UNL     1      -1.355  -6.054   2.020  0.00  0.00    +0.000 C 
BRANCH  17  18
ATOM     18  N   UNL     1      -0.676  -6.678   0.861  0.00  0.00    +0.000 NA
ATOM     19  H   UNL     1      -1.303  -7.338   0.403  0.00  0.00    +0.000 HD
ATOM     20  H   UNL     1      -0.471  -5.963   0.162  0.00  0.00    +0.000 HD
ENDBRANCH  17  18
BRANCH  17  21
ATOM     21  C   UNL     1      -0.432  -4.989   2.660  0.00  0.00    +0.000 C 
BRANCH  21  24
ATOM     22  F   UNL     1      -2.062  -3.090   1.243  0.00  0.00    +0.000 F 
ATOM     23  F   UNL     1       3.330  -2.699   0.578  0.00  0.00    +0.000 F 
ATOM     24  C   UNL     1       0.105  -3.919   1.727  0.00  0.00    +0.000 A 
ATOM     25  C   UNL     1      -0.734  -2.997   1.089  0.00  0.00    +0.000 A 
ATOM     26  C   UNL     1       1.487  -3.803   1.521  0.00  0.00    +0.000 A 
ATOM     27  C   UNL     1       2.000  -2.769   0.739  0.00  0.00    +0.000 A 
ATOM     28  C   UNL     1      -0.222  -1.962   0.304  0.00  0.00    +0.000 A 
ATOM     29  C   UNL     1       1.160  -1.820   0.147  0.00  0.00    +0.000 A 
BRANCH  29  30
ATOM     30  S   UNL     1       1.797  -0.441  -0.791  0.00  0.00    +0.000 S 
ATOM     31  C   UNL     1       2.808   0.353   0.494  0.00  0.00    +0.000 C 
ENDBRANCH  29  30
ENDBRANCH  21  24
ENDBRANCH  17  21
ENDBRANCH   1  17
TORSDOF 7
