REMARK  Name = 9836052
REMARK  5 active torsions:
REMARK  status: ('A' for Active; 'I' for Inactive)
REMARK    1  A    between atoms: N_5  and  C_11
REMARK    2  A    between atoms: C_11  and  C_12
REMARK    3  A    between atoms: C_11  and  C_15
REMARK    4  A    between atoms: C_12  and  C_14
REMARK    5  A    between atoms: C_15  and  C_17
REMARK                            x       y       z     vdW  Elec       q    Type
REMARK                         _______ _______ _______ _____ _____    ______ ____
ROOT
ATOM      1  C   UNL     1       0.440  -3.284   1.324  0.00  0.00    +0.000 C 
ENDROOT
BRANCH   1   2
ATOM      2  N   UNL     1      -0.932  -3.839   1.394  0.00  0.00    +0.000 NA
ATOM      3  H   UNL     1      -1.048  -4.368   2.258  0.00  0.00    +0.000 HD
ATOM      4  H   UNL     1      -1.602  -3.071   1.448  0.00  0.00    +0.000 HD
ENDBRANCH   1   2
BRANCH   1   5
ATOM      5  C   UNL     1       1.394  -4.495   1.286  0.00  0.00    +0.000 C 
BRANCH   5  15
ATOM      6  O   UNL     1       3.324  -3.049   1.342  0.00  0.00    +0.000 OA
ATOM      7  N   UNL     1       3.733  -5.300   1.485  0.00  0.00    +0.000 N 
ATOM      8  N   UNL     1       5.405  -7.274   0.510  0.00  0.00    +0.000 N 
ATOM      9  N   UNL     1       4.026  -8.933   0.820  0.00  0.00    +0.000 NA
ATOM     10  N   UNL     1       5.140  -9.401   0.155  0.00  0.00    +0.000 NA
ATOM     11  C   UNL     1       5.185  -5.098   1.596  0.00  0.00    +0.000 C 
ATOM     12  C   UNL     1       3.273  -6.684   1.690  0.00  0.00    +0.000 C 
ATOM     13  C   UNL     1       5.926  -5.926   0.544  0.00  0.00    +0.000 C 
ATOM     14  C   UNL     1       4.190  -7.642   1.019  0.00  0.00    +0.000 A 
ATOM     15  C   UNL     1       2.886  -4.197   1.384  0.00  0.00    +0.000 C 
ATOM     16  C   UNL     1       5.954  -8.387  -0.034  0.00  0.00    +0.000 A 
ENDBRANCH   5  15
ENDBRANCH   1   5
BRANCH   1  17
ATOM     17  C   UNL     1       0.573  -2.359   0.086  0.00  0.00    +0.000 C 
BRANCH  17  19
ATOM     18  F   UNL     1       0.344  -0.235   1.997  0.00  0.00    +0.000 F 
ATOM     19  C   UNL     1      -0.444  -1.236  -0.004  0.00  0.00    +0.000 A 
ATOM     20  C   UNL     1      -0.498  -0.219   0.955  0.00  0.00    +0.000 A 
ATOM     21  C   UNL     1      -1.349  -1.182  -1.078  0.00  0.00    +0.000 A 
ATOM     22  C   UNL     1      -1.416   0.826   0.856  0.00  0.00    +0.000 A 
ATOM     23  C   UNL     1      -2.271  -0.136  -1.182  0.00  0.00    +0.000 A 
ATOM     24  C   UNL     1      -2.303   0.871  -0.217  0.00  0.00    +0.000 A 
ENDBRANCH  17  19
ENDBRANCH   1  17
TORSDOF 5
