REMARK  Name = 24778061
REMARK  13 active torsions:
REMARK  status: ('A' for Active; 'I' for Inactive)
REMARK    1  A    between atoms: O_8  and  C_28
REMARK    2  A    between atoms: O_8  and  C_29
REMARK    3  A    between atoms: N_14  and  C_22
REMARK    4  A    between atoms: C_15  and  C_19
REMARK    5  A    between atoms: C_19  and  C_24
REMARK    6  A    between atoms: C_20  and  C_21
REMARK    7  A    between atoms: C_21  and  C_22
REMARK    8  A    between atoms: C_22  and  C_25
REMARK    9  A    between atoms: C_23  and  C_26
REMARK   10  A    between atoms: C_25  and  C_27
REMARK   11  A    between atoms: C_29  and  C_32
REMARK   12  A    between atoms: C_29  and  C_33
REMARK   13  A    between atoms: C_29  and  C_34
REMARK                            x       y       z     vdW  Elec       q    Type
REMARK                         _______ _______ _______ _____ _____    ______ ____
ROOT
ATOM      1  C   UNL     1      -1.550   6.155   0.353  0.00  0.00    +0.000 C 
ENDROOT
BRANCH   1   3
ATOM      2  O   UNL     1      -1.145   4.485   2.671  0.00  0.00    +0.000 OA
ATOM      3  N   UNL     1      -0.543   6.306   1.427  0.00  0.00    +0.000 N 
ATOM      4  C   UNL     1      -0.538   5.543   2.559  0.00  0.00    +0.000 C 
ATOM      5  H   UNL     1      -0.086   7.202   1.530  0.00  0.00    +0.000 HD
BRANCH   4   6
ATOM      6  O   UNL     1       0.164   6.167   3.543  0.00  0.00    +0.000 OA
BRANCH   6   7
ATOM      7  C   UNL     1       0.137   5.639   4.902  0.00  0.00    +0.000 C 
ATOM      8  C   UNL     1       0.782   4.249   4.979  0.00  0.00    +0.000 C 
ATOM      9  C   UNL     1       0.976   6.600   5.764  0.00  0.00    +0.000 C 
ATOM     10  C   UNL     1      -1.291   5.644   5.469  0.00  0.00    +0.000 C 
ENDBRANCH   6   7
ENDBRANCH   4   6
ENDBRANCH   1   3
BRANCH   1  11
ATOM     11  C   UNL     1      -1.328   4.857  -0.474  0.00  0.00    +0.000 C 
BRANCH  11  21
ATOM     12  O   UNL     1      -2.824   5.750  -2.120  0.00  0.00    +0.000 OA
ATOM     13  N   UNL     1      -2.131   3.574  -2.479  0.00  0.00    +0.000 N 
ATOM     14  N   UNL     1      -0.671   3.096  -4.795  0.00  0.00    +0.000 N 
ATOM     15  N   UNL     1      -2.354   3.162  -6.181  0.00  0.00    +0.000 NA
ATOM     16  N   UNL     1      -1.197   2.999  -6.904  0.00  0.00    +0.000 NA
ATOM     17  C   UNL     1      -2.951   3.326  -3.706  0.00  0.00    +0.000 C 
ATOM     18  C   UNL     1      -0.972   2.674  -2.401  0.00  0.00    +0.000 C 
ATOM     19  C   UNL     1      -2.032   3.256  -4.909  0.00  0.00    +0.000 A 
ATOM     20  C   UNL     1       0.016   3.033  -3.518  0.00  0.00    +0.000 C 
ATOM     21  C   UNL     1      -2.161   4.780  -1.763  0.00  0.00    +0.000 C 
ATOM     22  C   UNL     1      -0.173   2.983  -6.068  0.00  0.00    +0.000 A 
BRANCH  22  26
ATOM     23  F   UNL     1       2.082   3.040  -5.345  0.00  0.00    +0.000 F 
ATOM     24  F   UNL     1       1.653   3.789  -7.338  0.00  0.00    +0.000 F 
ATOM     25  F   UNL     1       1.573   1.644  -6.931  0.00  0.00    +0.000 F 
ATOM     26  C   UNL     1       1.266   2.865  -6.423  0.00  0.00    +0.000 C 
ENDBRANCH  22  26
BRANCH  17  27
ATOM     27  C   UNL     1      -4.197   4.182  -3.977  0.00  0.00    +0.000 C 
ATOM     28  C   UNL     1      -5.277   3.994  -2.918  0.00  0.00    +0.000 C 
ENDBRANCH  17  27
ENDBRANCH  11  21
ENDBRANCH   1  11
BRANCH   1  29
ATOM     29  C   UNL     1      -2.997   6.265   0.917  0.00  0.00    +0.000 C 
BRANCH  29  33
ATOM     30  F   UNL     1      -2.648   8.981   0.073  0.00  0.00    +0.000 F 
ATOM     31  F   UNL     1      -4.566   8.239   5.118  0.00  0.00    +0.000 F 
ATOM     32  F   UNL     1      -4.238  10.770   4.122  0.00  0.00    +0.000 F 
ATOM     33  C   UNL     1      -3.278   7.474   1.794  0.00  0.00    +0.000 A 
ATOM     34  C   UNL     1      -3.113   8.779   1.313  0.00  0.00    +0.000 A 
ATOM     35  C   UNL     1      -3.778   7.306   3.096  0.00  0.00    +0.000 A 
ATOM     36  C   UNL     1      -4.093   8.417   3.874  0.00  0.00    +0.000 A 
ATOM     37  C   UNL     1      -3.428   9.893   2.090  0.00  0.00    +0.000 A 
ATOM     38  C   UNL     1      -3.922   9.703   3.374  0.00  0.00    +0.000 A 
ENDBRANCH  29  33
ENDBRANCH   1  29
TORSDOF 9
