REMARK  Name = 24777437
REMARK  13 active torsions:
REMARK  status: ('A' for Active; 'I' for Inactive)
REMARK    1  A    between atoms: O_8  and  C_28
REMARK    2  A    between atoms: O_8  and  C_29
REMARK    3  A    between atoms: N_14  and  C_24
REMARK    4  A    between atoms: C_15  and  C_20
REMARK    5  A    between atoms: C_16  and  C_21
REMARK    6  A    between atoms: C_19  and  C_22
REMARK    7  A    between atoms: C_22  and  C_24
REMARK    8  A    between atoms: C_23  and  C_26
REMARK    9  A    between atoms: C_24  and  C_25
REMARK   10  A    between atoms: C_25  and  C_27
REMARK   11  A    between atoms: C_29  and  C_32
REMARK   12  A    between atoms: C_29  and  C_33
REMARK   13  A    between atoms: C_29  and  C_34
REMARK                            x       y       z     vdW  Elec       q    Type
REMARK                         _______ _______ _______ _____ _____    ______ ____
ROOT
ATOM      1  C   UNL     1       6.993   1.177  -5.510  0.00  0.00    +0.000 C 
ENDROOT
BRANCH   1   3
ATOM      2  O   UNL     1       7.500   1.746  -2.736  0.00  0.00    +0.000 OA
ATOM      3  N   UNL     1       7.629   0.298  -4.505  0.00  0.00    +0.000 N 
ATOM      4  C   UNL     1       7.887   0.697  -3.226  0.00  0.00    +0.000 C 
ATOM      5  H   UNL     1       8.060  -0.568  -4.799  0.00  0.00    +0.000 HD
BRANCH   4   6
ATOM      6  O   UNL     1       8.673  -0.211  -2.589  0.00  0.00    +0.000 OA
BRANCH   6   7
ATOM      7  C   UNL     1       9.173   0.095  -1.258  0.00  0.00    +0.000 C 
ATOM      8  C   UNL     1       8.036   0.187  -0.229  0.00  0.00    +0.000 C 
ATOM      9  C   UNL     1      10.078  -1.086  -0.875  0.00  0.00    +0.000 C 
ATOM     10  C   UNL     1      10.033   1.369  -1.263  0.00  0.00    +0.000 C 
ENDBRANCH   6   7
ENDBRANCH   4   6
ENDBRANCH   1   3
BRANCH   1  11
ATOM     11  C   UNL     1       5.583   1.594  -5.031  0.00  0.00    +0.000 C 
BRANCH  11  21
ATOM     12  O   UNL     1       5.158   2.650  -7.134  0.00  0.00    +0.000 OA
ATOM     13  N   UNL     1       3.481   2.849  -5.536  0.00  0.00    +0.000 N 
ATOM     14  N   UNL     1       0.888   3.299  -4.570  0.00  0.00    +0.000 N 
ATOM     15  N   UNL     1       0.112   4.068  -6.456  0.00  0.00    +0.000 NA
ATOM     16  N   UNL     1      -0.949   3.723  -5.662  0.00  0.00    +0.000 NA
ATOM     17  C   UNL     1       1.859   2.866  -3.587  0.00  0.00    +0.000 C 
ATOM     18  C   UNL     1       2.633   3.741  -6.383  0.00  0.00    +0.000 C 
ATOM     19  C   UNL     1       3.295   3.071  -4.095  0.00  0.00    +0.000 C 
ATOM     20  C   UNL     1       1.222   3.734  -5.829  0.00  0.00    +0.000 A 
ATOM     21  C   UNL     1       4.740   2.418  -6.004  0.00  0.00    +0.000 C 
ATOM     22  C   UNL     1       1.740   3.588  -2.239  0.00  0.00    +0.000 C 
ATOM     23  C   UNL     1       2.551   3.430  -7.887  0.00  0.00    +0.000 C 
ATOM     24  C   UNL     1      -0.485   3.187  -4.546  0.00  0.00    +0.000 A 
BRANCH  24  28
ATOM     25  F   UNL     1      -0.542   1.921  -2.534  0.00  0.00    +0.000 F 
ATOM     26  F   UNL     1      -2.146   1.608  -3.953  0.00  0.00    +0.000 F 
ATOM     27  F   UNL     1      -2.053   3.461  -2.802  0.00  0.00    +0.000 F 
ATOM     28  C   UNL     1      -1.298   2.554  -3.472  0.00  0.00    +0.000 C 
ENDBRANCH  24  28
ENDBRANCH  11  21
ENDBRANCH   1  11
BRANCH   1  29
ATOM     29  C   UNL     1       7.883   2.418  -5.795  0.00  0.00    +0.000 C 
BRANCH  29  33
ATOM     30  F   UNL     1       8.359   0.910  -8.201  0.00  0.00    +0.000 F 
ATOM     31  F   UNL     1      12.668   3.344  -5.926  0.00  0.00    +0.000 F 
ATOM     32  F   UNL     1      12.927   2.017  -8.307  0.00  0.00    +0.000 F 
ATOM     33  C   UNL     1       9.251   2.176  -6.400  0.00  0.00    +0.000 A 
ATOM     34  C   UNL     1       9.414   1.487  -7.611  0.00  0.00    +0.000 A 
ATOM     35  C   UNL     1      10.378   2.788  -5.827  0.00  0.00    +0.000 A 
ATOM     36  C   UNL     1      11.614   2.722  -6.469  0.00  0.00    +0.000 A 
ATOM     37  C   UNL     1      10.649   1.416  -8.250  0.00  0.00    +0.000 A 
ATOM     38  C   UNL     1      11.745   2.047  -7.676  0.00  0.00    +0.000 A 
ENDBRANCH  29  33
ENDBRANCH   1  29
TORSDOF 8
