REMARK  Name = 24776695
REMARK  10 active torsions:
REMARK  status: ('A' for Active; 'I' for Inactive)
REMARK    1  A    between atoms: N_13  and  C_28
REMARK    2  A    between atoms: N_13  and  C_29
REMARK    3  A    between atoms: N_14  and  C_23
REMARK    4  A    between atoms: C_15  and  C_19
REMARK    5  A    between atoms: C_19  and  C_24
REMARK    6  A    between atoms: C_20  and  C_21
REMARK    7  A    between atoms: C_21  and  C_23
REMARK    8  A    between atoms: C_22  and  C_26
REMARK    9  A    between atoms: C_23  and  C_25
REMARK   10  A    between atoms: C_25  and  C_27
REMARK                            x       y       z     vdW  Elec       q    Type
REMARK                         _______ _______ _______ _____ _____    ______ ____
ROOT
ATOM      1  O   UNL     1       4.650   2.014  -6.158  0.00  0.00    +0.000 OA
ATOM      2  N   UNL     1       5.813   1.614  -4.209  0.00  0.00    +0.000 N 
ATOM      3  N   UNL     1       5.870   2.202  -1.462  0.00  0.00    +0.000 N 
ATOM      4  N   UNL     1       5.506   4.342  -1.694  0.00  0.00    +0.000 NA
ATOM      5  N   UNL     1       5.625   4.063  -0.357  0.00  0.00    +0.000 NA
ATOM      6  C   UNL     1       5.830   3.064  -3.855  0.00  0.00    +0.000 C 
ATOM      7  C   UNL     1       6.557   0.723  -3.306  0.00  0.00    +0.000 C 
ATOM      8  C   UNL     1       6.044   0.824  -1.866  0.00  0.00    +0.000 C 
ATOM      9  C   UNL     1       5.673   3.221  -2.361  0.00  0.00    +0.000 A 
ATOM     10  C   UNL     1       5.194   1.207  -5.407  0.00  0.00    +0.000 C 
ATOM     11  C   UNL     1       5.854   2.768  -0.212  0.00  0.00    +0.000 A 
ENDROOT
BRANCH  11  15
ATOM     12  F   UNL     1       6.180   0.707   0.919  0.00  0.00    +0.000 F 
ATOM     13  F   UNL     1       5.052   2.249   1.953  0.00  0.00    +0.000 F 
ATOM     14  F   UNL     1       7.211   2.456   1.696  0.00  0.00    +0.000 F 
ATOM     15  C   UNL     1       6.070   2.055   1.076  0.00  0.00    +0.000 C 
ENDBRANCH  11  15
BRANCH   6  16
ATOM     16  C   UNL     1       7.131   3.800  -4.219  0.00  0.00    +0.000 C 
BRANCH  16  19
ATOM     17  O   UNL     1       8.098   2.978  -6.209  0.00  0.00    +0.000 OA
ATOM     18  N   UNL     1       6.913   4.936  -6.417  0.00  0.00    +0.000 N 
ATOM     19  C   UNL     1       7.406   3.861  -5.696  0.00  0.00    +0.000 C 
ATOM     20  C   UNL     1       6.041   5.984  -5.903  0.00  0.00    +0.000 C 
ATOM     21  C   UNL     1       7.297   5.035  -7.813  0.00  0.00    +0.000 C 
ENDBRANCH  16  19
ENDBRANCH   6  16
BRANCH  10  22
ATOM     22  C   UNL     1       5.181  -0.296  -5.716  0.00  0.00    +0.000 C 
BRANCH  22  23
ATOM     23  C   UNL     1       4.333  -0.784  -6.926  0.00  0.00    +0.000 C 
BRANCH  23  24
ATOM     24  N   UNL     1       4.248  -2.260  -6.790  0.00  0.00    +0.000 NA
ATOM     25  H   UNL     1       3.921  -2.673  -7.664  0.00  0.00    +0.000 HD
ATOM     26  H   UNL     1       3.518  -2.484  -6.112  0.00  0.00    +0.000 HD
ENDBRANCH  23  24
BRANCH  23  27
ATOM     27  C   UNL     1       4.918  -0.415  -8.323  0.00  0.00    +0.000 C 
BRANCH  27  31
ATOM     28  F   UNL     1       2.074  -1.139  -8.622  0.00  0.00    +0.000 F 
ATOM     29  F   UNL     1       5.208  -1.704 -13.038  0.00  0.00    +0.000 F 
ATOM     30  F   UNL     1       2.540  -2.309 -13.145  0.00  0.00    +0.000 F 
ATOM     31  C   UNL     1       4.245  -0.963  -9.587  0.00  0.00    +0.000 A 
ATOM     32  C   UNL     1       2.874  -1.266  -9.684  0.00  0.00    +0.000 A 
ATOM     33  C   UNL     1       5.021  -1.111 -10.754  0.00  0.00    +0.000 A 
ATOM     34  C   UNL     1       4.443  -1.567 -11.944  0.00  0.00    +0.000 A 
ATOM     35  C   UNL     1       2.299  -1.727 -10.873  0.00  0.00    +0.000 A 
ATOM     36  C   UNL     1       3.091  -1.874 -12.002  0.00  0.00    +0.000 A 
ENDBRANCH  27  31
ENDBRANCH  23  27
ENDBRANCH  22  23
ENDBRANCH  10  22
TORSDOF 8
