REMARK  Name = 10269270
REMARK  7 active torsions:
REMARK  status: ('A' for Active; 'I' for Inactive)
REMARK    1  A    between atoms: N_8  and  C_14
REMARK    2  A    between atoms: C_13  and  C_14
REMARK    3  A    between atoms: C_13  and  C_15
REMARK    4  A    between atoms: C_14  and  C_17
REMARK    5  A    between atoms: C_16  and  C_18
REMARK    6  A    between atoms: C_17  and  C_19
REMARK    7  A    between atoms: C_18  and  C_20
REMARK                            x       y       z     vdW  Elec       q    Type
REMARK                         _______ _______ _______ _____ _____    ______ ____
ROOT
ATOM      1  C   UNL     1      -1.947  -4.527  -1.161  0.00  0.00    +0.000 C 
ENDROOT
BRANCH   1  11
ATOM      2  O   UNL     1      -4.107  -4.414  -2.163  0.00  0.00    +0.000 OA
ATOM      3  N   UNL     1      -4.020  -3.760   0.024  0.00  0.00    +0.000 N 
ATOM      4  N   UNL     1      -5.099  -1.583   1.333  0.00  0.00    +0.000 N 
ATOM      5  N   UNL     1      -3.382  -1.244   2.637  0.00  0.00    +0.000 NA
ATOM      6  N   UNL     1      -4.250  -0.185   2.768  0.00  0.00    +0.000 NA
ATOM      7  C   UNL     1      -5.483  -3.678   0.126  0.00  0.00    +0.000 C 
ATOM      8  C   UNL     1      -5.937  -2.234   0.349  0.00  0.00    +0.000 C 
ATOM      9  C   UNL     1      -3.300  -3.337   1.232  0.00  0.00    +0.000 C 
ATOM     10  C   UNL     1      -3.889  -2.072   1.752  0.00  0.00    +0.000 A 
ATOM     11  C   UNL     1      -3.435  -4.214  -1.149  0.00  0.00    +0.000 C 
ATOM     12  C   UNL     1      -5.272  -0.380   1.959  0.00  0.00    +0.000 A 
BRANCH  12  13
ATOM     13  C   UNL     1      -6.400   0.562   1.729  0.00  0.00    +0.000 C 
ATOM     14  C   UNL     1      -7.527   0.351   2.725  0.00  0.00    +0.000 C 
ENDBRANCH  12  13
ENDBRANCH   1  11
BRANCH   1  15
ATOM     15  C   UNL     1      -1.080  -3.546  -1.973  0.00  0.00    +0.000 C 
BRANCH  15  16
ATOM     16  N   UNL     1       0.310  -4.045  -1.894  0.00  0.00    +0.000 NA
ATOM     17  H   UNL     1       0.365  -4.972  -2.317  0.00  0.00    +0.000 HD
ATOM     18  H   UNL     1       0.918  -3.450  -2.459  0.00  0.00    +0.000 HD
ENDBRANCH  15  16
BRANCH  15  19
ATOM     19  C   UNL     1      -1.165  -2.088  -1.457  0.00  0.00    +0.000 C 
BRANCH  19  22
ATOM     20  F   UNL     1      -1.176  -1.309  -4.220  0.00  0.00    +0.000 F 
ATOM     21  F   UNL     1       2.567   1.044  -1.040  0.00  0.00    +0.000 F 
ATOM     22  C   UNL     1      -0.198  -1.096  -2.072  0.00  0.00    +0.000 A 
ATOM     23  C   UNL     1      -0.258  -0.744  -3.424  0.00  0.00    +0.000 A 
ATOM     24  C   UNL     1       0.776  -0.477  -1.271  0.00  0.00    +0.000 A 
ATOM     25  C   UNL     1       1.647   0.462  -1.822  0.00  0.00    +0.000 A 
ATOM     26  C   UNL     1       0.616   0.196  -3.974  0.00  0.00    +0.000 A 
ATOM     27  C   UNL     1       1.577   0.806  -3.165  0.00  0.00    +0.000 A 
ENDBRANCH  19  22
ENDBRANCH  15  19
ENDBRANCH   1  15
TORSDOF 6
