REMARK  Name = 10226963
REMARK  6 active torsions:
REMARK  status: ('A' for Active; 'I' for Inactive)
REMARK    1  A    between atoms: N_11  and  C_18
REMARK    2  A    between atoms: C_17  and  C_18
REMARK    3  A    between atoms: C_17  and  C_19
REMARK    4  A    between atoms: C_18  and  C_20
REMARK    5  A    between atoms: C_20  and  C_22
REMARK    6  A    between atoms: C_21  and  C_23
REMARK                            x       y       z     vdW  Elec       q    Type
REMARK                         _______ _______ _______ _____ _____    ______ ____
ROOT
ATOM      1  C   UNL     1       8.790   0.456  -2.258  0.00  0.00    +0.000 C 
ENDROOT
BRANCH   1  11
ATOM      2  O   UNL     1       9.180  -1.676  -3.242  0.00  0.00    +0.000 OA
ATOM      3  N   UNL     1       9.875  -1.472  -1.070  0.00  0.00    +0.000 N 
ATOM      4  N   UNL     1      12.177  -1.780   0.423  0.00  0.00    +0.000 N 
ATOM      5  N   UNL     1      12.625  -3.807  -0.244  0.00  0.00    +0.000 NA
ATOM      6  N   UNL     1      13.680  -3.348   0.511  0.00  0.00    +0.000 NA
ATOM      7  C   UNL     1       9.952  -0.783   0.218  0.00  0.00    +0.000 C 
ATOM      8  C   UNL     1      11.414  -0.561   0.598  0.00  0.00    +0.000 C 
ATOM      9  C   UNL     1      10.443  -2.830  -1.080  0.00  0.00    +0.000 C 
ATOM     10  C   UNL     1      11.737  -2.841  -0.332  0.00  0.00    +0.000 A 
ATOM     11  C   UNL     1       9.282  -0.986  -2.225  0.00  0.00    +0.000 C 
ATOM     12  C   UNL     1      13.427  -2.104   0.880  0.00  0.00    +0.000 A 
BRANCH  12  16
ATOM     13  F   UNL     1      13.765   0.033   1.844  0.00  0.00    +0.000 F 
ATOM     14  F   UNL     1      14.662  -1.671   2.850  0.00  0.00    +0.000 F 
ATOM     15  F   UNL     1      15.485  -0.950   0.959  0.00  0.00    +0.000 F 
ATOM     16  C   UNL     1      14.328  -1.188   1.627  0.00  0.00    +0.000 C 
ENDBRANCH  12  16
ENDBRANCH   1  11
BRANCH   1  17
ATOM     17  C   UNL     1       7.280   0.641  -2.032  0.00  0.00    +0.000 C 
BRANCH  17  18
ATOM     18  N   UNL     1       6.874   0.223  -0.680  0.00  0.00    +0.000 NA
ATOM     19  H   UNL     1       7.180   0.925  -0.006  0.00  0.00    +0.000 HD
ATOM     20  H   UNL     1       5.854   0.229  -0.617  0.00  0.00    +0.000 HD
ENDBRANCH  17  18
BRANCH  17  21
ATOM     21  C   UNL     1       6.442  -0.045  -3.140  0.00  0.00    +0.000 C 
BRANCH  21  25
ATOM     22 BR   UNL     1       0.338   1.126  -3.107  0.00  0.00    +0.000 Br
ATOM     23  F   UNL     1       5.315   2.564  -3.461  0.00  0.00    +0.000 F 
ATOM     24  F   UNL     1       1.816  -1.547  -2.713  0.00  0.00    +0.000 F 
ATOM     25  C   UNL     1       4.957   0.248  -3.090  0.00  0.00    +0.000 A 
ATOM     26  C   UNL     1       4.463   1.546  -3.271  0.00  0.00    +0.000 A 
ATOM     27  C   UNL     1       4.036  -0.792  -2.896  0.00  0.00    +0.000 A 
ATOM     28  C   UNL     1       2.666  -0.526  -2.894  0.00  0.00    +0.000 A 
ATOM     29  C   UNL     1       3.094   1.817  -3.265  0.00  0.00    +0.000 A 
ATOM     30  C   UNL     1       2.194   0.770  -3.083  0.00  0.00    +0.000 A 
ENDBRANCH  21  25
ENDBRANCH  17  21
ENDBRANCH   1  17
TORSDOF 6
