REMARK  Name = 20628251
REMARK  7 active torsions:
REMARK  status: ('A' for Active; 'I' for Inactive)
REMARK    1  A    between atoms: N_9  and  C_16
REMARK    2  A    between atoms: C_15  and  C_16
REMARK    3  A    between atoms: C_15  and  C_17
REMARK    4  A    between atoms: C_16  and  C_18
REMARK    5  A    between atoms: C_18  and  C_20
REMARK    6  A    between atoms: C_19  and  C_21
REMARK    7  A    between atoms: C_26  and  C_27
REMARK                            x       y       z     vdW  Elec       q    Type
REMARK                         _______ _______ _______ _____ _____    ______ ____
ROOT
ATOM      1  O   UNL     1       1.873   5.434   0.293  0.00  0.00    +0.000 OA
ATOM      2  N   UNL     1       0.193   4.019  -0.337  0.00  0.00    +0.000 N 
ATOM      3  N   UNL     1      -0.003   1.293  -0.783  0.00  0.00    +0.000 N 
ATOM      4  N   UNL     1       1.602   1.194  -2.258  0.00  0.00    +0.000 NA
ATOM      5  N   UNL     1       1.169  -0.082  -1.995  0.00  0.00    +0.000 NA
ATOM      6  C   UNL     1      -1.115   3.383  -0.154  0.00  0.00    +0.000 C 
ATOM      7  C   UNL     1      -0.933   1.895   0.149  0.00  0.00    +0.000 C 
ATOM      8  C   UNL     1       0.999   3.506  -1.452  0.00  0.00    +0.000 C 
ATOM      9  C   UNL     1       0.904   2.020  -1.514  0.00  0.00    +0.000 A 
ATOM     10  C   UNL     1       0.724   5.025   0.454  0.00  0.00    +0.000 C 
ATOM     11  C   UNL     1       0.204  -0.025  -1.093  0.00  0.00    +0.000 A 
ENDROOT
BRANCH  11  15
ATOM     12  F   UNL     1      -1.452  -0.785   0.422  0.00  0.00    +0.000 F 
ATOM     13  F   UNL     1       0.288  -2.048   0.126  0.00  0.00    +0.000 F 
ATOM     14  F   UNL     1      -1.221  -1.873  -1.444  0.00  0.00    +0.000 F 
ATOM     15  C   UNL     1      -0.534  -1.172  -0.506  0.00  0.00    +0.000 C 
ENDBRANCH  11  15
BRANCH  10  16
ATOM     16  C   UNL     1      -0.171   5.587   1.546  0.00  0.00    +0.000 C 
BRANCH  16  17
ATOM     17  C   UNL     1       0.470   6.757   2.307  0.00  0.00    +0.000 C 
BRANCH  17  18
ATOM     18  N   UNL     1      -0.400   7.081   3.455  0.00  0.00    +0.000 NA
ATOM     19  H   UNL     1       0.005   7.869   3.965  0.00  0.00    +0.000 HD
ATOM     20  H   UNL     1      -0.407   6.303   4.116  0.00  0.00    +0.000 HD
ENDBRANCH  17  18
BRANCH  17  21
ATOM     21  C   UNL     1       0.658   7.998   1.392  0.00  0.00    +0.000 C 
BRANCH  21  23
ATOM     22  F   UNL     1      -0.569  10.550   1.583  0.00  0.00    +0.000 F 
ATOM     23  C   UNL     1       1.297   9.176   2.089  0.00  0.00    +0.000 A 
ATOM     24  C   UNL     1       0.631  10.401   2.161  0.00  0.00    +0.000 A 
ATOM     25  C   UNL     1       2.565   9.068   2.676  0.00  0.00    +0.000 A 
ATOM     26  C   UNL     1       1.184  11.485   2.835  0.00  0.00    +0.000 A 
ATOM     27  C   UNL     1       3.123  10.151   3.361  0.00  0.00    +0.000 A 
ATOM     28  C   UNL     1       2.433  11.365   3.455  0.00  0.00    +0.000 A 
ATOM     29  C   UNL     1       3.006  12.525   4.211  0.00  0.00    +0.000 C 
ENDBRANCH  21  23
ENDBRANCH  17  21
ENDBRANCH  16  17
ENDBRANCH  10  16
TORSDOF 6
