REMARK  Name = 11583115
REMARK  4 active torsions:
REMARK  status: ('A' for Active; 'I' for Inactive)
REMARK    1  A    between atoms: N_10  and  C_14
REMARK    2  A    between atoms: C_13  and  C_19
REMARK    3  A    between atoms: C_17  and  C_20
REMARK    4  A    between atoms: C_27  and  C_30
REMARK                            x       y       z     vdW  Elec       q    Type
REMARK                         _______ _______ _______ _____ _____    ______ ____
ROOT
ATOM      1  C   UNL     1       2.144   2.555  -0.228  0.00  0.00    +0.000 C 
ATOM      2  C   UNL     1       3.370   2.329  -1.152  0.00  0.00    +0.000 C 
ATOM      3  C   UNL     1       4.712   2.812  -0.535  0.00  0.00    +0.000 C 
ATOM      4  C   UNL     1       2.395   2.181   1.242  0.00  0.00    +0.000 C 
ATOM      5  C   UNL     1       4.867   2.549   0.942  0.00  0.00    +0.000 C 
ATOM      6  C   UNL     1       3.826   2.145   1.688  0.00  0.00    +0.000 C 
ENDROOT
BRANCH   5  12
ATOM      7  O   UNL     1       7.201   2.372   0.772  0.00  0.00    +0.000 OA
ATOM      8  N   UNL     1       6.467   3.274   2.751  0.00  0.00    +0.000 N 
ATOM      9  N   UNL     1       7.036   5.277   4.611  0.00  0.00    +0.000 N 
ATOM     10  N   UNL     1       9.197   5.033   4.563  0.00  0.00    +0.000 NA
ATOM     11  N   UNL     1       8.898   6.160   5.298  0.00  0.00    +0.000 NA
ATOM     12  C   UNL     1       6.263   2.697   1.499  0.00  0.00    +0.000 C 
ATOM     13  C   UNL     1       5.445   3.629   3.743  0.00  0.00    +0.000 C 
ATOM     14  C   UNL     1       7.858   3.322   3.252  0.00  0.00    +0.000 C 
ATOM     15  C   UNL     1       5.655   5.011   4.337  0.00  0.00    +0.000 C 
ATOM     16  C   UNL     1       8.069   4.521   4.122  0.00  0.00    +0.000 A 
ATOM     17  C   UNL     1       7.584   6.323   5.300  0.00  0.00    +0.000 A 
BRANCH  17  21
ATOM     18  F   UNL     1       5.455   7.266   5.755  0.00  0.00    +0.000 F 
ATOM     19  F   UNL     1       7.013   7.555   7.238  0.00  0.00    +0.000 F 
ATOM     20  F   UNL     1       7.086   8.634   5.339  0.00  0.00    +0.000 F 
ATOM     21  C   UNL     1       6.801   7.435   5.903  0.00  0.00    +0.000 C 
ENDBRANCH  17  21
ENDBRANCH   5  12
BRANCH   1  25
ATOM     22  F   UNL     1      -0.000   2.895  -1.990  0.00  0.00    +0.000 F 
ATOM     23  F   UNL     1       2.201   7.485  -0.087  0.00  0.00    +0.000 F 
ATOM     24  F   UNL     1       0.289   7.572  -2.044  0.00  0.00    +0.000 F 
ATOM     25  C   UNL     1       1.559   3.933  -0.521  0.00  0.00    +0.000 A 
ATOM     26  C   UNL     1       0.537   4.017  -1.490  0.00  0.00    +0.000 A 
ATOM     27  C   UNL     1       2.095   5.127  -0.022  0.00  0.00    +0.000 A 
ATOM     28  C   UNL     1       1.647   6.349  -0.533  0.00  0.00    +0.000 A 
ATOM     29  C   UNL     1       0.094   5.231  -1.998  0.00  0.00    +0.000 A 
ATOM     30  C   UNL     1       0.669   6.397  -1.524  0.00  0.00    +0.000 A 
ENDBRANCH   1  25
BRANCH   2  31
ATOM     31  N   UNL     1       3.426   0.914  -1.558  0.00  0.00    +0.000 NA
ATOM     32  H   UNL     1       4.039   0.821  -2.367  0.00  0.00    +0.000 HD
ATOM     33  H   UNL     1       3.848   0.353  -0.819  0.00  0.00    +0.000 HD
ENDBRANCH   2  31
TORSDOF 4
