REMARK  Name = 10318135
REMARK  6 active torsions:
REMARK  status: ('A' for Active; 'I' for Inactive)
REMARK    1  A    between atoms: N_11  and  C_16
REMARK    2  A    between atoms: C_16  and  C_17
REMARK    3  A    between atoms: C_16  and  C_19
REMARK    4  A    between atoms: C_17  and  C_18
REMARK    5  A    between atoms: C_19  and  C_20
REMARK    6  A    between atoms: C_21  and  C_22
REMARK                            x       y       z     vdW  Elec       q    Type
REMARK                         _______ _______ _______ _____ _____    ______ ____
ROOT
ATOM      1  O   UNL     1      -3.995  -3.190  -1.286  0.00  0.00    +0.000 OA
ATOM      2  N   UNL     1      -4.348  -5.352  -0.595  0.00  0.00    +0.000 N 
ATOM      3  N   UNL     1      -5.765  -6.664   1.361  0.00  0.00    +0.000 N 
ATOM      4  N   UNL     1      -4.334  -8.274   1.678  0.00  0.00    +0.000 NA
ATOM      5  N   UNL     1      -6.265  -7.299   2.432  0.00  0.00    +0.000 NA
ATOM      6  C   UNL     1      -5.808  -5.177  -0.565  0.00  0.00    +0.000 C 
ATOM      7  C   UNL     1      -3.881  -6.712  -0.278  0.00  0.00    +0.000 C 
ATOM      8  C   UNL     1      -6.357  -5.453   0.832  0.00  0.00    +0.000 C 
ATOM      9  C   UNL     1      -4.617  -7.242   0.909  0.00  0.00    +0.000 A 
ATOM     10  C   UNL     1      -3.531  -4.292  -0.996  0.00  0.00    +0.000 C 
ATOM     11  C   UNL     1      -5.357  -8.282   2.624  0.00  0.00    +0.000 A 
ENDROOT
BRANCH  11  15
ATOM     12  F   UNL     1      -4.381 -10.151   3.769  0.00  0.00    +0.000 F 
ATOM     13  F   UNL     1      -5.438  -8.680   4.980  0.00  0.00    +0.000 F 
ATOM     14  F   UNL     1      -6.557 -10.052   3.701  0.00  0.00    +0.000 F 
ATOM     15  C   UNL     1      -5.433  -9.285   3.759  0.00  0.00    +0.000 C 
ENDBRANCH  11  15
BRANCH  10  16
ATOM     16  C   UNL     1      -2.037  -4.577  -1.096  0.00  0.00    +0.000 C 
BRANCH  16  17
ATOM     17  C   UNL     1      -1.111  -3.359  -1.309  0.00  0.00    +0.000 C 
BRANCH  17  18
ATOM     18  N   UNL     1       0.252  -3.904  -1.501  0.00  0.00    +0.000 NA
ATOM     19  H   UNL     1       0.289  -4.441  -2.368  0.00  0.00    +0.000 HD
ATOM     20  H   UNL     1       0.913  -3.137  -1.624  0.00  0.00    +0.000 HD
ENDBRANCH  17  18
BRANCH  17  21
ATOM     21  C   UNL     1      -1.139  -2.405  -0.085  0.00  0.00    +0.000 C 
BRANCH  21  24
ATOM     22  F   UNL     1      -1.004  -0.292  -2.021  0.00  0.00    +0.000 F 
ATOM     23  F   UNL     1       2.608  -0.092   2.047  0.00  0.00    +0.000 F 
ATOM     24  C   UNL     1      -0.115  -1.285  -0.060  0.00  0.00    +0.000 A 
ATOM     25  C   UNL     1      -0.117  -0.265  -1.019  0.00  0.00    +0.000 A 
ATOM     26  C   UNL     1       0.832  -1.214   0.973  0.00  0.00    +0.000 A 
ATOM     27  C   UNL     1       1.723  -0.148   1.042  0.00  0.00    +0.000 A 
ATOM     28  C   UNL     1       0.780   0.805  -0.949  0.00  0.00    +0.000 A 
ATOM     29  C   UNL     1       1.703   0.868   0.094  0.00  0.00    +0.000 A 
ENDBRANCH  21  24
ENDBRANCH  17  21
ENDBRANCH  16  17
ENDBRANCH  10  16
TORSDOF 6
