REMARK  Name = 24776592
REMARK  8 active torsions:
REMARK  status: ('A' for Active; 'I' for Inactive)
REMARK    1  A    between atoms: N_12  and  C_21
REMARK    2  A    between atoms: C_13  and  C_17
REMARK    3  A    between atoms: C_17  and  C_22
REMARK    4  A    between atoms: C_18  and  C_19
REMARK    5  A    between atoms: C_19  and  C_21
REMARK    6  A    between atoms: C_20  and  C_24
REMARK    7  A    between atoms: C_21  and  C_23
REMARK    8  A    between atoms: C_23  and  C_27
REMARK                            x       y       z     vdW  Elec       q    Type
REMARK                         _______ _______ _______ _____ _____    ______ ____
ROOT
ATOM      1  O   UNL     1       3.176   7.850  -1.552  0.00  0.00    +0.000 OA
ATOM      2  N   UNL     1       1.990   7.702  -3.518  0.00  0.00    +0.000 N 
ATOM      3  N   UNL     1       1.530   8.015  -6.267  0.00  0.00    +0.000 N 
ATOM      4  N   UNL     1       3.039   9.542  -6.620  0.00  0.00    +0.000 NA
ATOM      5  N   UNL     1       2.490   9.172  -7.830  0.00  0.00    +0.000 NA
ATOM      6  C   UNL     1       2.918   8.646  -4.229  0.00  0.00    +0.000 C 
ATOM      7  C   UNL     1       0.630   7.610  -4.070  0.00  0.00    +0.000 C 
ATOM      8  C   UNL     1       2.503   8.785  -5.683  0.00  0.00    +0.000 A 
ATOM      9  C   UNL     1       0.659   7.150  -5.514  0.00  0.00    +0.000 C 
ATOM     10  C   UNL     1       2.230   7.382  -2.185  0.00  0.00    +0.000 C 
ATOM     11  C   UNL     1       1.598   8.221  -7.617  0.00  0.00    +0.000 A 
ENDROOT
BRANCH  11  15
ATOM     12  F   UNL     1      -0.010   6.535  -8.066  0.00  0.00    +0.000 F 
ATOM     13  F   UNL     1       1.584   6.802  -9.513  0.00  0.00    +0.000 F 
ATOM     14  F   UNL     1      -0.010   8.289  -9.346  0.00  0.00    +0.000 F 
ATOM     15  C   UNL     1       0.802   7.473  -8.628  0.00  0.00    +0.000 C 
ENDBRANCH  11  15
BRANCH   6  16
ATOM     16  C   UNL     1       4.448   8.315  -4.152  0.00  0.00    +0.000 C 
BRANCH  16  17
ATOM     17  C   UNL     1       4.883   6.966  -4.685  0.00  0.00    +0.000 A 
ATOM     18  C   UNL     1       4.757   6.648  -6.041  0.00  0.00    +0.000 A 
ATOM     19  C   UNL     1       5.449   6.011  -3.835  0.00  0.00    +0.000 A 
ATOM     20  C   UNL     1       5.039   5.367  -6.517  0.00  0.00    +0.000 A 
ATOM     21  C   UNL     1       5.769   4.734  -4.312  0.00  0.00    +0.000 A 
ATOM     22  C   UNL     1       5.536   4.402  -5.645  0.00  0.00    +0.000 A 
ENDBRANCH  16  17
ENDBRANCH   6  16
BRANCH  10  23
ATOM     23  C   UNL     1       1.304   6.376  -1.500  0.00  0.00    +0.000 C 
BRANCH  23  24
ATOM     24  C   UNL     1       1.311   4.995  -2.180  0.00  0.00    +0.000 C 
BRANCH  24  25
ATOM     25  N   UNL     1       0.324   4.119  -1.528  0.00  0.00    +0.000 NA
ATOM     26  H   UNL     1       0.742   3.677  -0.707  0.00  0.00    +0.000 HD
ATOM     27  H   UNL     1       0.100   3.344  -2.156  0.00  0.00    +0.000 HD
ENDBRANCH  24  25
BRANCH  24  28
ATOM     28  C   UNL     1       2.726   4.391  -2.165  0.00  0.00    +0.000 C 
BRANCH  28  32
ATOM     29  F   UNL     1       2.145   3.897  -4.915  0.00  0.00    +0.000 F 
ATOM     30  F   UNL     1       3.935  -0.325  -1.977  0.00  0.00    +0.000 F 
ATOM     31  F   UNL     1       3.393  -0.628  -4.645  0.00  0.00    +0.000 F 
ATOM     32  C   UNL     1       2.859   3.042  -2.819  0.00  0.00    +0.000 A 
ATOM     33  C   UNL     1       2.581   2.865  -4.183  0.00  0.00    +0.000 A 
ATOM     34  C   UNL     1       3.320   1.943  -2.077  0.00  0.00    +0.000 A 
ATOM     35  C   UNL     1       3.492   0.713  -2.698  0.00  0.00    +0.000 A 
ATOM     36  C   UNL     1       2.758   1.633  -4.806  0.00  0.00    +0.000 A 
ATOM     37  C   UNL     1       3.216   0.561  -4.053  0.00  0.00    +0.000 A 
ENDBRANCH  28  32
ENDBRANCH  24  28
ENDBRANCH  23  24
ENDBRANCH  10  23
TORSDOF 8
