REMARK  Name = 11974440
REMARK  4 active torsions:
REMARK  status: ('A' for Active; 'I' for Inactive)
REMARK    1  A    between atoms: N_10  and  C_14
REMARK    2  A    between atoms: C_13  and  C_19
REMARK    3  A    between atoms: C_17  and  C_20
REMARK    4  A    between atoms: C_27  and  C_30
REMARK                            x       y       z     vdW  Elec       q    Type
REMARK                         _______ _______ _______ _____ _____    ______ ____
ROOT
ATOM      1  C   UNL     1       2.247   2.313  -0.062  0.00  0.00    +0.000 C 
ATOM      2  C   UNL     1       3.153   2.346  -1.322  0.00  0.00    +0.000 C 
ATOM      3  C   UNL     1       4.104   3.571  -1.248  0.00  0.00    +0.000 C 
ATOM      4  C   UNL     1       3.119   2.186   1.207  0.00  0.00    +0.000 C 
ATOM      5  C   UNL     1       4.746   3.736   0.110  0.00  0.00    +0.000 C 
ATOM      6  C   UNL     1       4.382   2.981   1.162  0.00  0.00    +0.000 C 
ENDROOT
BRANCH   5  12
ATOM      7  O   UNL     1       6.662   4.818  -0.714  0.00  0.00    +0.000 OA
ATOM      8  N   UNL     1       5.896   5.593   1.313  0.00  0.00    +0.000 N 
ATOM      9  N   UNL     1       5.422   7.958   2.698  0.00  0.00    +0.000 N 
ATOM     10  N   UNL     1       7.237   8.964   2.055  0.00  0.00    +0.000 NA
ATOM     11  N   UNL     1       6.424   9.880   2.691  0.00  0.00    +0.000 NA
ATOM     12  C   UNL     1       5.862   4.733   0.216  0.00  0.00    +0.000 C 
ATOM     13  C   UNL     1       5.030   5.547   2.498  0.00  0.00    +0.000 C 
ATOM     14  C   UNL     1       7.040   6.517   1.417  0.00  0.00    +0.000 C 
ATOM     15  C   UNL     1       4.462   6.903   2.868  0.00  0.00    +0.000 C 
ATOM     16  C   UNL     1       6.608   7.810   2.031  0.00  0.00    +0.000 A 
ATOM     17  C   UNL     1       5.307   9.274   3.051  0.00  0.00    +0.000 A 
BRANCH  17  21
ATOM     18  F   UNL     1       3.135   8.938   3.943  0.00  0.00    +0.000 F 
ATOM     19  F   UNL     1       4.382  10.440   4.891  0.00  0.00    +0.000 F 
ATOM     20  F   UNL     1       3.515  10.811   2.918  0.00  0.00    +0.000 F 
ATOM     21  C   UNL     1       4.104   9.866   3.694  0.00  0.00    +0.000 C 
ENDBRANCH  17  21
ENDBRANCH   5  12
BRANCH   1  25
ATOM     22  F   UNL     1       2.826  -0.491  -0.092  0.00  0.00    +0.000 F 
ATOM     23  F   UNL     1      -2.436   0.893   0.035  0.00  0.00    +0.000 F 
ATOM     24  F   UNL     1      -1.698  -1.744   0.053  0.00  0.00    +0.000 F 
ATOM     25  C   UNL     1       1.185   1.228  -0.067  0.00  0.00    +0.000 A 
ATOM     26  C   UNL     1       1.535  -0.133  -0.068  0.00  0.00    +0.000 A 
ATOM     27  C   UNL     1      -0.177   1.564  -0.031  0.00  0.00    +0.000 A 
ATOM     28  C   UNL     1      -1.138   0.555   0.001  0.00  0.00    +0.000 A 
ATOM     29  C   UNL     1       0.575  -1.139  -0.027  0.00  0.00    +0.000 A 
ATOM     30  C   UNL     1      -0.764  -0.781   0.008  0.00  0.00    +0.000 A 
ENDBRANCH   1  25
BRANCH   2  31
ATOM     31  N   UNL     1       2.392   2.381  -2.581  0.00  0.00    +0.000 NA
ATOM     32  H   UNL     1       1.821   1.540  -2.662  0.00  0.00    +0.000 HD
ATOM     33  H   UNL     1       1.747   3.169  -2.591  0.00  0.00    +0.000 HD
ENDBRANCH   2  31
TORSDOF 4
