REMARK  Name = 10254918
REMARK  8 active torsions:
REMARK  status: ('A' for Active; 'I' for Inactive)
REMARK    1  A    between atoms: N_11  and  C_20
REMARK    2  A    between atoms: N_13  and  C_23
REMARK    3  A    between atoms: C_16  and  C_20
REMARK    4  A    between atoms: C_21  and  C_22
REMARK    5  A    between atoms: C_22  and  C_23
REMARK    6  A    between atoms: C_23  and  C_24
REMARK    7  A    between atoms: C_24  and  C_26
REMARK    8  A    between atoms: C_25  and  C_27
REMARK                            x       y       z     vdW  Elec       q    Type
REMARK                         _______ _______ _______ _____ _____    ______ ____
ROOT
ATOM      1  O   UNL     1       1.471   6.491   0.357  0.00  0.00    +0.000 OA
ATOM      2  N   UNL     1       3.682   5.960   0.662  0.00  0.00    +0.000 N 
ATOM      3  N   UNL     1       5.825   4.218   0.685  0.00  0.00    +0.000 N 
ATOM      4  N   UNL     1       4.785   2.443   1.377  0.00  0.00    +0.000 NA
ATOM      5  N   UNL     1       6.761   3.273   0.569  0.00  0.00    +0.000 NA
ATOM      6  C   UNL     1       3.388   4.595   1.225  0.00  0.00    +0.000 C 
ATOM      7  C   UNL     1       5.034   6.468   0.966  0.00  0.00    +0.000 C 
ATOM      8  C   UNL     1       4.633   3.730   1.130  0.00  0.00    +0.000 A 
ATOM      9  C   UNL     1       6.093   5.588   0.329  0.00  0.00    +0.000 C 
ATOM     10  C   UNL     1       2.656   6.813   0.270  0.00  0.00    +0.000 C 
ATOM     11  C   UNL     1       6.076   2.165   0.925  0.00  0.00    +0.000 A 
ENDROOT
BRANCH  11  15
ATOM     12  F   UNL     1       5.764  -0.210   1.117  0.00  0.00    +0.000 F 
ATOM     13  F   UNL     1       7.718   0.593   1.656  0.00  0.00    +0.000 F 
ATOM     14  F   UNL     1       7.117   0.499  -0.440  0.00  0.00    +0.000 F 
ATOM     15  C   UNL     1       6.658   0.772   0.817  0.00  0.00    +0.000 C 
ENDBRANCH  11  15
BRANCH   6  16
ATOM     16  C   UNL     1       2.157   3.821   0.693  0.00  0.00    +0.000 C 
BRANCH  16  17
ATOM     17  N   UNL     1       2.158   3.544  -0.725  0.00  0.00    +0.000 N 
ATOM     18  N   UNL     1       3.074   2.726  -1.273  0.00  0.00    +0.000 NA
ATOM     19  N   UNL     1       1.515   3.356  -2.806  0.00  0.00    +0.000 NA
ATOM     20  C   UNL     1       1.223   3.903  -1.646  0.00  0.00    +0.000 A 
ATOM     21  C   UNL     1       2.637   2.631  -2.528  0.00  0.00    +0.000 A 
ENDBRANCH  16  17
ENDBRANCH   6  16
BRANCH  10  22
ATOM     22  C   UNL     1       3.006   8.172  -0.326  0.00  0.00    +0.000 C 
BRANCH  22  23
ATOM     23  C   UNL     1       3.786   8.077  -1.649  0.00  0.00    +0.000 C 
BRANCH  23  24
ATOM     24  N   UNL     1       4.252   9.428  -2.007  0.00  0.00    +0.000 NA
ATOM     25  H   UNL     1       3.515   9.935  -2.499  0.00  0.00    +0.000 HD
ATOM     26  H   UNL     1       5.020   9.357  -2.677  0.00  0.00    +0.000 HD
ENDBRANCH  23  24
BRANCH  23  27
ATOM     27  C   UNL     1       2.940   7.422  -2.768  0.00  0.00    +0.000 C 
BRANCH  27  31
ATOM     28  F   UNL     1       5.367   5.961  -3.125  0.00  0.00    +0.000 F 
ATOM     29  F   UNL     1       3.217   8.229  -7.585  0.00  0.00    +0.000 F 
ATOM     30  F   UNL     1       5.553   6.809  -7.745  0.00  0.00    +0.000 F 
ATOM     31  C   UNL     1       3.646   7.275  -4.098  0.00  0.00    +0.000 A 
ATOM     32  C   UNL     1       4.832   6.535  -4.212  0.00  0.00    +0.000 A 
ATOM     33  C   UNL     1       3.099   7.842  -5.263  0.00  0.00    +0.000 A 
ATOM     34  C   UNL     1       3.749   7.677  -6.485  0.00  0.00    +0.000 A 
ATOM     35  C   UNL     1       5.483   6.376  -5.432  0.00  0.00    +0.000 A 
ATOM     36  C   UNL     1       4.931   6.955  -6.565  0.00  0.00    +0.000 A 
ENDBRANCH  27  31
ENDBRANCH  23  27
ENDBRANCH  22  23
ENDBRANCH  10  22
TORSDOF 8
