REMARK  Name = 11726565
REMARK  7 active torsions:
REMARK  status: ('A' for Active; 'I' for Inactive)
REMARK    1  A    between atoms: O_5  and  C_19
REMARK    2  A    between atoms: O_5  and  C_26
REMARK    3  A    between atoms: N_9  and  C_14
REMARK    4  A    between atoms: C_14  and  C_15
REMARK    5  A    between atoms: C_14  and  C_18
REMARK    6  A    between atoms: C_15  and  C_17
REMARK    7  A    between atoms: C_18  and  C_20
REMARK                            x       y       z     vdW  Elec       q    Type
REMARK                         _______ _______ _______ _____ _____    ______ ____
ROOT
ATOM      1  C   UNL     1       2.040   3.363  -1.258  0.00  0.00    +0.000 C 
ENDROOT
BRANCH   1   2
ATOM      2  N   UNL     1       0.809   4.176  -1.354  0.00  0.00    +0.000 NA
ATOM      3  H   UNL     1       0.869   4.794  -2.164  0.00  0.00    +0.000 HD
ATOM      4  H   UNL     1       0.010   3.567  -1.533  0.00  0.00    +0.000 HD
ENDBRANCH   1   2
BRANCH   1   5
ATOM      5  C   UNL     1       3.214   4.353  -1.104  0.00  0.00    +0.000 C 
BRANCH   5  15
ATOM      6  O   UNL     1       5.113   3.257  -2.043  0.00  0.00    +0.000 OA
ATOM      7  N   UNL     1       5.270   3.718   0.189  0.00  0.00    +0.000 N 
ATOM      8  N   UNL     1       6.121   2.275   2.374  0.00  0.00    +0.000 N 
ATOM      9  N   UNL     1       4.606   3.052   3.745  0.00  0.00    +0.000 NA
ATOM     10  N   UNL     1       5.275   2.020   4.368  0.00  0.00    +0.000 NA
ATOM     11  C   UNL     1       6.687   3.317   0.242  0.00  0.00    +0.000 C 
ATOM     12  C   UNL     1       6.882   2.105   1.156  0.00  0.00    +0.000 C 
ATOM     13  C   UNL     1       4.708   4.144   1.476  0.00  0.00    +0.000 C 
ATOM     14  C   UNL     1       5.113   3.187   2.539  0.00  0.00    +0.000 A 
ATOM     15  C   UNL     1       4.598   3.721  -1.023  0.00  0.00    +0.000 C 
ATOM     16  C   UNL     1       6.176   1.558   3.526  0.00  0.00    +0.000 A 
BRANCH  16  17
ATOM     17  O   UNL     1       7.014   0.545   3.731  0.00  0.00    +0.000 OA
ATOM     18  C   UNL     1       6.800  -0.135   4.967  0.00  0.00    +0.000 C 
ENDBRANCH  16  17
ENDBRANCH   5  15
ENDBRANCH   1   5
BRANCH   1  19
ATOM     19  C   UNL     1       1.931   2.359  -0.084  0.00  0.00    +0.000 C 
BRANCH  19  23
ATOM     20  F   UNL     1       1.283   0.413  -2.097  0.00  0.00    +0.000 F 
ATOM     21  F   UNL     1      -2.123   0.767   2.144  0.00  0.00    +0.000 F 
ATOM     22  F   UNL     1      -2.562  -1.082   0.172  0.00  0.00    +0.000 F 
ATOM     23  C   UNL     1       0.704   1.466  -0.053  0.00  0.00    +0.000 A 
ATOM     24  C   UNL     1       0.452   0.517  -1.052  0.00  0.00    +0.000 A 
ATOM     25  C   UNL     1      -0.191   1.542   1.030  0.00  0.00    +0.000 A 
ATOM     26  C   UNL     1      -1.290   0.686   1.097  0.00  0.00    +0.000 A 
ATOM     27  C   UNL     1      -0.649  -0.339  -0.988  0.00  0.00    +0.000 A 
ATOM     28  C   UNL     1      -1.513  -0.251   0.096  0.00  0.00    +0.000 A 
ENDBRANCH  19  23
ENDBRANCH   1  19
TORSDOF 6
