REMARK  Name = 10409924
REMARK  7 active torsions:
REMARK  status: ('A' for Active; 'I' for Inactive)
REMARK    1  A    between atoms: N_12  and  C_21
REMARK    2  A    between atoms: C_13  and  C_17
REMARK    3  A    between atoms: C_18  and  C_19
REMARK    4  A    between atoms: C_19  and  C_21
REMARK    5  A    between atoms: C_20  and  C_23
REMARK    6  A    between atoms: C_21  and  C_22
REMARK    7  A    between atoms: C_22  and  C_24
REMARK                            x       y       z     vdW  Elec       q    Type
REMARK                         _______ _______ _______ _____ _____    ______ ____
ROOT
ATOM      1  O   UNL     1       2.081   5.183  -5.205  0.00  0.00    +0.000 OA
ATOM      2  N   UNL     1       2.915   6.746  -3.749  0.00  0.00    +0.000 N 
ATOM      3  N   UNL     1       3.096   9.420  -2.899  0.00  0.00    +0.000 N 
ATOM      4  N   UNL     1       4.418   8.959  -1.215  0.00  0.00    +0.000 NA
ATOM      5  N   UNL     1       4.410  10.313  -1.401  0.00  0.00    +0.000 NA
ATOM      6  C   UNL     1       2.230   9.158  -4.043  0.00  0.00    +0.000 C 
ATOM      7  C   UNL     1       1.840   7.664  -4.126  0.00  0.00    +0.000 C 
ATOM      8  C   UNL     1       3.484   6.969  -2.415  0.00  0.00    +0.000 C 
ATOM      9  C   UNL     1       3.675   8.418  -2.153  0.00  0.00    +0.000 A 
ATOM     10  C   UNL     1       0.946  10.001  -4.069  0.00  0.00    +0.000 C 
ATOM     11  C   UNL     1       2.911   5.478  -4.345  0.00  0.00    +0.000 C 
ATOM     12  C   UNL     1       3.666  10.594  -2.460  0.00  0.00    +0.000 A 
ENDROOT
BRANCH  12  16
ATOM     13  F   UNL     1       2.780  11.930  -4.218  0.00  0.00    +0.000 F 
ATOM     14  F   UNL     1       4.693  12.509  -3.385  0.00  0.00    +0.000 F 
ATOM     15  F   UNL     1       2.864  12.807  -2.230  0.00  0.00    +0.000 F 
ATOM     16  C   UNL     1       3.501  11.945  -3.063  0.00  0.00    +0.000 C 
ENDBRANCH  12  16
BRANCH  11  17
ATOM     17  C   UNL     1       3.989   4.494  -3.903  0.00  0.00    +0.000 C 
BRANCH  17  18
ATOM     18  C   UNL     1       3.997   3.135  -4.654  0.00  0.00    +0.000 C 
BRANCH  18  19
ATOM     19  N   UNL     1       5.014   2.273  -4.018  0.00  0.00    +0.000 NA
ATOM     20  H   UNL     1       4.885   2.247  -3.007  0.00  0.00    +0.000 HD
ATOM     21  H   UNL     1       5.949   2.644  -4.185  0.00  0.00    +0.000 HD
ENDBRANCH  18  19
BRANCH  18  22
ATOM     22  C   UNL     1       4.297   3.307  -6.168  0.00  0.00    +0.000 C 
BRANCH  22  26
ATOM     23  F   UNL     1       4.705   3.662  -8.869  0.00  0.00    +0.000 F 
ATOM     24  F   UNL     1       4.458  -1.527  -7.274  0.00  0.00    +0.000 F 
ATOM     25  F   UNL     1       4.889  -0.913  -9.902  0.00  0.00    +0.000 F 
ATOM     26  C   UNL     1       4.417   2.111  -7.096  0.00  0.00    +0.000 A 
ATOM     27  C   UNL     1       4.635   2.388  -8.460  0.00  0.00    +0.000 A 
ATOM     28  C   UNL     1       4.344   0.767  -6.709  0.00  0.00    +0.000 A 
ATOM     29  C   UNL     1       4.507  -0.244  -7.661  0.00  0.00    +0.000 A 
ATOM     30  C   UNL     1       4.787   1.384  -9.412  0.00  0.00    +0.000 A 
ATOM     31  C   UNL     1       4.727   0.063  -9.000  0.00  0.00    +0.000 A 
ENDBRANCH  22  26
ENDBRANCH  18  22
ENDBRANCH  17  18
ENDBRANCH  11  17
TORSDOF 6
