REMARK  Name = 10132535
REMARK  7 active torsions:
REMARK  status: ('A' for Active; 'I' for Inactive)
REMARK    1  A    between atoms: N_8  and  C_15
REMARK    2  A    between atoms: C_13  and  C_14
REMARK    3  A    between atoms: C_13  and  C_15
REMARK    4  A    between atoms: C_15  and  C_17
REMARK    5  A    between atoms: C_16  and  C_18
REMARK    6  A    between atoms: C_17  and  C_19
REMARK    7  A    between atoms: C_18  and  C_20
REMARK                            x       y       z     vdW  Elec       q    Type
REMARK                         _______ _______ _______ _____ _____    ______ ____
ROOT
ATOM      1  C   UNL     1      -5.346  -1.892   1.076  0.00  0.00    +0.000 C 
ENDROOT
BRANCH   1  11
ATOM      2  O   UNL     1      -5.367  -4.031   2.119  0.00  0.00    +0.000 OA
ATOM      3  N   UNL     1      -4.374  -3.966   0.058  0.00  0.00    +0.000 N 
ATOM      4  N   UNL     1      -4.523  -5.099  -2.460  0.00  0.00    +0.000 N 
ATOM      5  N   UNL     1      -4.547  -7.175  -1.802  0.00  0.00    +0.000 NA
ATOM      6  N   UNL     1      -4.749  -7.139  -3.167  0.00  0.00    +0.000 NA
ATOM      7  C   UNL     1      -3.747  -3.266  -1.067  0.00  0.00    +0.000 C 
ATOM      8  C   UNL     1      -4.410  -3.663  -2.379  0.00  0.00    +0.000 C 
ATOM      9  C   UNL     1      -4.242  -5.436   0.022  0.00  0.00    +0.000 C 
ATOM     10  C   UNL     1      -4.444  -5.934  -1.376  0.00  0.00    +0.000 A 
ATOM     11  C   UNL     1      -5.020  -3.378   1.134  0.00  0.00    +0.000 C 
ATOM     12  C   UNL     1      -4.760  -5.880  -3.554  0.00  0.00    +0.000 A 
BRANCH  12  13
ATOM     13  C   UNL     1      -5.039  -5.368  -4.923  0.00  0.00    +0.000 C 
ATOM     14  C   UNL     1      -3.780  -5.266  -5.768  0.00  0.00    +0.000 C 
ENDBRANCH  12  13
ENDBRANCH   1  11
BRANCH   1  15
ATOM     15  C   UNL     1      -4.426  -1.004   1.936  0.00  0.00    +0.000 C 
BRANCH  15  16
ATOM     16  N   UNL     1      -4.933   0.379   1.827  0.00  0.00    +0.000 NA
ATOM     17  H   UNL     1      -5.876   0.430   2.214  0.00  0.00    +0.000 HD
ATOM     18  H   UNL     1      -4.366   0.995   2.412  0.00  0.00    +0.000 HD
ENDBRANCH  15  16
BRANCH  15  19
ATOM     19  C   UNL     1      -2.945  -1.070   1.488  0.00  0.00    +0.000 C 
BRANCH  19  22
ATOM     20  F   UNL     1      -0.486   0.544   5.418  0.00  0.00    +0.000 F 
ATOM     21  F   UNL     1       0.792   2.428   3.894  0.00  0.00    +0.000 F 
ATOM     22  C   UNL     1      -1.983  -0.117   2.167  0.00  0.00    +0.000 A 
ATOM     23  C   UNL     1      -1.693  -0.213   3.535  0.00  0.00    +0.000 A 
ATOM     24  C   UNL     1      -1.326   0.865   1.400  0.00  0.00    +0.000 A 
ATOM     25  C   UNL     1      -0.758   0.650   4.110  0.00  0.00    +0.000 A 
ATOM     26  C   UNL     1      -0.394   1.725   1.986  0.00  0.00    +0.000 A 
ATOM     27  C   UNL     1      -0.113   1.610   3.341  0.00  0.00    +0.000 A 
ENDBRANCH  19  22
ENDBRANCH  15  19
ENDBRANCH   1  15
TORSDOF 6
