REMARK  Name = 24776701
REMARK  9 active torsions:
REMARK  status: ('A' for Active; 'I' for Inactive)
REMARK    1  A    between atoms: N_15  and  C_25
REMARK    2  A    between atoms: C_16  and  C_20
REMARK    3  A    between atoms: C_20  and  C_24
REMARK    4  A    between atoms: C_21  and  C_22
REMARK    5  A    between atoms: C_22  and  C_25
REMARK    6  A    between atoms: C_23  and  C_28
REMARK    7  A    between atoms: C_25  and  C_26
REMARK    8  A    between atoms: C_26  and  C_30
REMARK    9  A    between atoms: C_27  and  C_32
REMARK                            x       y       z     vdW  Elec       q    Type
REMARK                         _______ _______ _______ _____ _____    ______ ____
ROOT
ATOM      1  O   UNL     1       6.351   3.159   4.138  0.00  0.00    +0.000 OA
ATOM      2  N   UNL     1       4.212   2.378   4.328  0.00  0.00    +0.000 N 
ATOM      3  N   UNL     1       1.760   2.189   3.012  0.00  0.00    +0.000 N 
ATOM      4  N   UNL     1       1.819   4.182   2.138  0.00  0.00    +0.000 NA
ATOM      5  N   UNL     1       0.726   3.521   1.638  0.00  0.00    +0.000 NA
ATOM      6  C   UNL     1       3.670   3.668   3.789  0.00  0.00    +0.000 C 
ATOM      7  C   UNL     1       3.217   1.420   4.832  0.00  0.00    +0.000 C 
ATOM      8  C   UNL     1       2.436   3.380   2.981  0.00  0.00    +0.000 A 
ATOM      9  C   UNL     1       2.207   1.037   3.756  0.00  0.00    +0.000 C 
ATOM     10  C   UNL     1       5.587   2.254   4.489  0.00  0.00    +0.000 C 
ATOM     11  C   UNL     1       0.698   2.304   2.152  0.00  0.00    +0.000 A 
ENDROOT
BRANCH  11  15
ATOM     12  F   UNL     1       0.059   0.039   2.412  0.00  0.00    +0.000 F 
ATOM     13  F   UNL     1      -0.384   0.991   0.512  0.00  0.00    +0.000 F 
ATOM     14  F   UNL     1      -1.528   1.520   2.297  0.00  0.00    +0.000 F 
ATOM     15  C   UNL     1      -0.282   1.230   1.845  0.00  0.00    +0.000 C 
ENDBRANCH  11  15
BRANCH   6  16
ATOM     16  C   UNL     1       3.407   4.707   4.921  0.00  0.00    +0.000 C 
BRANCH  16  17
ATOM     17  C   UNL     1       2.855   6.071   4.494  0.00  0.00    +0.000 A 
ATOM     18  C   UNL     1       1.473   6.367   4.360  0.00  0.00    +0.000 A 
ATOM     19  C   UNL     1       3.786   7.091   4.201  0.00  0.00    +0.000 A 
ATOM     20  C   UNL     1       1.090   7.637   3.863  0.00  0.00    +0.000 A 
ATOM     21  C   UNL     1       3.377   8.353   3.762  0.00  0.00    +0.000 A 
ATOM     22  C   UNL     1       2.030   8.621   3.570  0.00  0.00    +0.000 A 
BRANCH  18  26
ATOM     23  F   UNL     1       0.698   4.234   5.256  0.00  0.00    +0.000 F 
ATOM     24  F   UNL     1      -0.429   6.014   5.750  0.00  0.00    +0.000 F 
ATOM     25  F   UNL     1      -0.542   5.191   3.751  0.00  0.00    +0.000 F 
ATOM     26  C   UNL     1       0.332   5.452   4.761  0.00  0.00    +0.000 C 
ENDBRANCH  18  26
ENDBRANCH  16  17
ENDBRANCH   6  16
BRANCH  10  27
ATOM     27  C   UNL     1       6.178   0.973   5.083  0.00  0.00    +0.000 C 
BRANCH  27  28
ATOM     28  C   UNL     1       6.391  -0.144   4.046  0.00  0.00    +0.000 C 
BRANCH  28  29
ATOM     29  N   UNL     1       6.662  -1.435   4.691  0.00  0.00    +0.000 NA
ATOM     30  H   UNL     1       6.129  -1.561   5.548  0.00  0.00    +0.000 HD
ATOM     31  H   UNL     1       7.651  -1.512   4.960  0.00  0.00    +0.000 HD
ENDBRANCH  28  29
BRANCH  28  32
ATOM     32  C   UNL     1       7.474   0.175   2.968  0.00  0.00    +0.000 C 
BRANCH  32  36
ATOM     33  F   UNL     1       9.373  -1.465   4.412  0.00  0.00    +0.000 F 
ATOM     34  F   UNL     1      10.795   3.712   3.519  0.00  0.00    +0.000 F 
ATOM     35  F   UNL     1      12.353   2.097   5.088  0.00  0.00    +0.000 F 
ATOM     36  C   UNL     1       8.826   0.647   3.466  0.00  0.00    +0.000 A 
ATOM     37  C   UNL     1       9.690  -0.181   4.198  0.00  0.00    +0.000 A 
ATOM     38  C   UNL     1       9.239   1.965   3.212  0.00  0.00    +0.000 A 
ATOM     39  C   UNL     1      10.432   2.442   3.749  0.00  0.00    +0.000 A 
ATOM     40  C   UNL     1      10.877   0.296   4.745  0.00  0.00    +0.000 A 
ATOM     41  C   UNL     1      11.233   1.619   4.530  0.00  0.00    +0.000 A 
ENDBRANCH  32  36
ENDBRANCH  28  32
ENDBRANCH  27  28
ENDBRANCH  10  27
TORSDOF 9
