REMARK  Name = 10095827
REMARK  8 active torsions:
REMARK  status: ('A' for Active; 'I' for Inactive)
REMARK    1  A    between atoms: N_12  and  C_24
REMARK    2  A    between atoms: C_13  and  C_16
REMARK    3  A    between atoms: C_16  and  C_17
REMARK    4  A    between atoms: C_21  and  C_22
REMARK    5  A    between atoms: C_22  and  C_24
REMARK    6  A    between atoms: C_23  and  C_26
REMARK    7  A    between atoms: C_24  and  C_25
REMARK    8  A    between atoms: C_25  and  C_27
REMARK                            x       y       z     vdW  Elec       q    Type
REMARK                         _______ _______ _______ _____ _____    ______ ____
ROOT
ATOM      1  O   UNL     1       4.814  -2.764   4.726  0.00  0.00    +0.000 OA
ATOM      2  N   UNL     1       4.252  -4.989   4.626  0.00  0.00    +0.000 N 
ATOM      3  N   UNL     1       4.809  -6.681   2.553  0.00  0.00    +0.000 N 
ATOM      4  N   UNL     1       3.649  -5.664   1.016  0.00  0.00    +0.000 NA
ATOM      5  N   UNL     1       5.136  -7.357   1.445  0.00  0.00    +0.000 NA
ATOM      6  C   UNL     1       3.407  -4.772   3.415  0.00  0.00    +0.000 C 
ATOM      7  C   UNL     1       3.925  -5.666   2.306  0.00  0.00    +0.000 A 
ATOM      8  C   UNL     1       4.560  -6.393   4.943  0.00  0.00    +0.000 C 
ATOM      9  C   UNL     1       5.407  -6.992   3.831  0.00  0.00    +0.000 C 
ATOM     10  C   UNL     1       4.921  -3.897   5.186  0.00  0.00    +0.000 C 
ATOM     11  C   UNL     1       4.423  -6.707   0.500  0.00  0.00    +0.000 A 
ENDROOT
BRANCH  11  15
ATOM     12  F   UNL     1       3.699  -6.280  -1.751  0.00  0.00    +0.000 F 
ATOM     13  F   UNL     1       4.059  -8.355  -1.194  0.00  0.00    +0.000 F 
ATOM     14  F   UNL     1       5.740  -6.990  -1.475  0.00  0.00    +0.000 F 
ATOM     15  C   UNL     1       4.476  -7.075  -0.970  0.00  0.00    +0.000 C 
ENDBRANCH  11  15
BRANCH   6  16
ATOM     16  C   UNL     1       1.911  -5.069   3.688  0.00  0.00    +0.000 C 
BRANCH  16  17
ATOM     17  C   UNL     1       1.301  -4.242   4.795  0.00  0.00    +0.000 C 
ATOM     18  C   UNL     1      -0.161  -4.440   5.116  0.00  0.00    +0.000 C 
ATOM     19  C   UNL     1       0.302  -3.147   4.513  0.00  0.00    +0.000 C 
ENDBRANCH  16  17
ENDBRANCH   6  16
BRANCH  10  20
ATOM     20  C   UNL     1       5.775  -4.183   6.416  0.00  0.00    +0.000 C 
BRANCH  20  21
ATOM     21  C   UNL     1       6.561  -2.984   6.974  0.00  0.00    +0.000 C 
BRANCH  21  22
ATOM     22  N   UNL     1       7.431  -3.498   8.059  0.00  0.00    +0.000 NA
ATOM     23  H   UNL     1       8.035  -2.745   8.388  0.00  0.00    +0.000 HD
ATOM     24  H   UNL     1       8.063  -4.207   7.691  0.00  0.00    +0.000 HD
ENDBRANCH  21  22
BRANCH  21  25
ATOM     25  C   UNL     1       5.655  -1.849   7.521  0.00  0.00    +0.000 C 
BRANCH  25  29
ATOM     26  F   UNL     1       7.550  -0.241   6.113  0.00  0.00    +0.000 F 
ATOM     27  F   UNL     1       6.811   0.934  11.378  0.00  0.00    +0.000 F 
ATOM     28  F   UNL     1       8.659   2.310   9.901  0.00  0.00    +0.000 F 
ATOM     29  C   UNL     1       6.424  -0.703   8.152  0.00  0.00    +0.000 A 
ATOM     30  C   UNL     1       7.355   0.038   7.409  0.00  0.00    +0.000 A 
ATOM     31  C   UNL     1       6.236  -0.377   9.503  0.00  0.00    +0.000 A 
ATOM     32  C   UNL     1       6.988   0.643  10.084  0.00  0.00    +0.000 A 
ATOM     33  C   UNL     1       8.111   1.051   7.988  0.00  0.00    +0.000 A 
ATOM     34  C   UNL     1       7.923   1.346   9.331  0.00  0.00    +0.000 A 
ENDBRANCH  25  29
ENDBRANCH  21  25
ENDBRANCH  20  21
ENDBRANCH  10  20
TORSDOF 8
