REMARK  Name = 24777569
REMARK  8 active torsions:
REMARK  status: ('A' for Active; 'I' for Inactive)
REMARK    1  A    between atoms: N_12  and  C_22
REMARK    2  A    between atoms: C_13  and  C_18
REMARK    3  A    between atoms: C_14  and  C_19
REMARK    4  A    between atoms: C_17  and  C_21
REMARK    5  A    between atoms: C_20  and  C_24
REMARK    6  A    between atoms: C_21  and  C_22
REMARK    7  A    between atoms: C_22  and  C_23
REMARK    8  A    between atoms: C_23  and  C_25
REMARK                            x       y       z     vdW  Elec       q    Type
REMARK                         _______ _______ _______ _____ _____    ______ ____
ROOT
ATOM      1  O   UNL     1       6.537   5.938   1.654  0.00  0.00    +0.000 OA
ATOM      2  N   UNL     1       4.325   6.470   1.279  0.00  0.00    +0.000 N 
ATOM      3  N   UNL     1       2.317   7.120  -0.534  0.00  0.00    +0.000 N 
ATOM      4  N   UNL     1       3.664   8.070  -1.968  0.00  0.00    +0.000 NA
ATOM      5  N   UNL     1       2.468   7.826  -2.591  0.00  0.00    +0.000 NA
ATOM      6  C   UNL     1       1.879   6.497   0.704  0.00  0.00    +0.000 C 
ATOM      7  C   UNL     1       4.707   7.454   0.247  0.00  0.00    +0.000 C 
ATOM      8  C   UNL     1       2.962   6.571   1.795  0.00  0.00    +0.000 C 
ATOM      9  C   UNL     1       3.595   7.576  -0.751  0.00  0.00    +0.000 A 
ATOM     10  C   UNL     1       5.353   5.776   1.927  0.00  0.00    +0.000 C 
ATOM     11  C   UNL     1       0.577   7.084   1.270  0.00  0.00    +0.000 C 
ATOM     12  C   UNL     1       5.045   8.817   0.852  0.00  0.00    +0.000 C 
ATOM     13  C   UNL     1       1.680   7.175  -1.753  0.00  0.00    +0.000 A 
ENDROOT
BRANCH  13  17
ATOM     14  F   UNL     1      -0.139   5.814  -1.062  0.00  0.00    +0.000 F 
ATOM     15  F   UNL     1       0.401   5.766  -3.160  0.00  0.00    +0.000 F 
ATOM     16  F   UNL     1      -0.586   7.527  -2.323  0.00  0.00    +0.000 F 
ATOM     17  C   UNL     1       0.354   6.580  -2.073  0.00  0.00    +0.000 C 
ENDBRANCH  13  17
BRANCH  10  18
ATOM     18  C   UNL     1       4.900   4.762   2.970  0.00  0.00    +0.000 C 
BRANCH  18  19
ATOM     19  C   UNL     1       6.005   3.993   3.702  0.00  0.00    +0.000 C 
BRANCH  19  20
ATOM     20  N   UNL     1       5.393   2.888   4.469  0.00  0.00    +0.000 NA
ATOM     21  H   UNL     1       4.507   3.193   4.876  0.00  0.00    +0.000 HD
ATOM     22  H   UNL     1       5.984   2.638   5.262  0.00  0.00    +0.000 HD
ENDBRANCH  19  20
BRANCH  19  23
ATOM     23  C   UNL     1       6.972   4.842   4.569  0.00  0.00    +0.000 C 
BRANCH  23  27
ATOM     24  F   UNL     1       4.267   5.018   5.851  0.00  0.00    +0.000 F 
ATOM     25  F   UNL     1       8.173   8.341   7.693  0.00  0.00    +0.000 F 
ATOM     26  F   UNL     1       5.612   8.533   8.648  0.00  0.00    +0.000 F 
ATOM     27  C   UNL     1       6.526   5.770   5.680  0.00  0.00    +0.000 A 
ATOM     28  C   UNL     1       5.244   5.848   6.237  0.00  0.00    +0.000 A 
ATOM     29  C   UNL     1       7.516   6.624   6.214  0.00  0.00    +0.000 A 
ATOM     30  C   UNL     1       7.209   7.543   7.214  0.00  0.00    +0.000 A 
ATOM     31  C   UNL     1       4.930   6.784   7.226  0.00  0.00    +0.000 A 
ATOM     32  C   UNL     1       5.917   7.633   7.704  0.00  0.00    +0.000 A 
ENDBRANCH  23  27
ENDBRANCH  19  23
ENDBRANCH  18  19
ENDBRANCH  10  18
TORSDOF 6
