REMARK  Name = 10173317
REMARK  7 active torsions:
REMARK  status: ('A' for Active; 'I' for Inactive)
REMARK    1  A    between atoms: N_12  and  C_20
REMARK    2  A    between atoms: C_13  and  C_18
REMARK    3  A    between atoms: C_17  and  C_19
REMARK    4  A    between atoms: C_19  and  C_20
REMARK    5  A    between atoms: C_20  and  C_22
REMARK    6  A    between atoms: C_21  and  C_23
REMARK    7  A    between atoms: C_22  and  C_24
REMARK                            x       y       z     vdW  Elec       q    Type
REMARK                         _______ _______ _______ _____ _____    ______ ____
ROOT
ATOM      1  O   UNL     1       0.741   4.060  -0.784  0.00  0.00    +0.000 OA
ATOM      2  N   UNL     1      -0.014   6.091  -1.522  0.00  0.00    +0.000 N 
ATOM      3  N   UNL     1      -1.919   6.841  -3.398  0.00  0.00    +0.000 N 
ATOM      4  N   UNL     1      -0.977   5.848  -5.098  0.00  0.00    +0.000 NA
ATOM      5  N   UNL     1      -2.157   6.420  -5.519  0.00  0.00    +0.000 NA
ATOM      6  C   UNL     1      -0.721   7.376  -1.324  0.00  0.00    +0.000 C 
ATOM      7  C   UNL     1      -2.079   7.305  -2.039  0.00  0.00    +0.000 C 
ATOM      8  C   UNL     1       0.281   5.708  -2.914  0.00  0.00    +0.000 C 
ATOM      9  C   UNL     1      -0.845   6.095  -3.814  0.00  0.00    +0.000 A 
ATOM     10  C   UNL     1       0.236   5.152  -0.528  0.00  0.00    +0.000 C 
ATOM     11  C   UNL     1       0.110   8.579  -1.790  0.00  0.00    +0.000 C 
ATOM     12  C   UNL     1      -2.732   7.014  -4.486  0.00  0.00    +0.000 A 
ENDROOT
BRANCH  12  16
ATOM     13  F   UNL     1      -4.369   8.206  -3.253  0.00  0.00    +0.000 F 
ATOM     14  F   UNL     1      -5.063   6.958  -4.885  0.00  0.00    +0.000 F 
ATOM     15  F   UNL     1      -4.007   8.826  -5.302  0.00  0.00    +0.000 F 
ATOM     16  C   UNL     1      -4.028   7.742  -4.485  0.00  0.00    +0.000 C 
ENDBRANCH  12  16
BRANCH  10  17
ATOM     17  C   UNL     1      -0.175   5.517   0.890  0.00  0.00    +0.000 C 
BRANCH  17  18
ATOM     18  C   UNL     1       0.176   4.429   1.919  0.00  0.00    +0.000 C 
BRANCH  18  19
ATOM     19  N   UNL     1      -0.453   4.795   3.204  0.00  0.00    +0.000 NA
ATOM     20  H   UNL     1      -0.259   4.072   3.895  0.00  0.00    +0.000 HD
ATOM     21  H   UNL     1      -1.470   4.812   3.103  0.00  0.00    +0.000 HD
ENDBRANCH  18  19
BRANCH  18  22
ATOM     22  C   UNL     1       1.710   4.280   2.088  0.00  0.00    +0.000 C 
BRANCH  22  26
ATOM     23  F   UNL     1       3.288   4.816   4.386  0.00  0.00    +0.000 F 
ATOM     24  F   UNL     1       1.813  -0.372   3.613  0.00  0.00    +0.000 F 
ATOM     25  F   UNL     1       3.327   0.325   5.782  0.00  0.00    +0.000 F 
ATOM     26  C   UNL     1       2.128   3.210   3.074  0.00  0.00    +0.000 A 
ATOM     27  C   UNL     1       2.913   3.546   4.188  0.00  0.00    +0.000 A 
ATOM     28  C   UNL     1       1.767   1.871   2.882  0.00  0.00    +0.000 A 
ATOM     29  C   UNL     1       2.171   0.905   3.800  0.00  0.00    +0.000 A 
ATOM     30  C   UNL     1       3.322   2.584   5.104  0.00  0.00    +0.000 A 
ATOM     31  C   UNL     1       2.945   1.261   4.904  0.00  0.00    +0.000 A 
ENDBRANCH  22  26
ENDBRANCH  18  22
ENDBRANCH  17  18
ENDBRANCH  10  17
TORSDOF 6
