REMARK  Name = 9843297
REMARK  6 active torsions:
REMARK  status: ('A' for Active; 'I' for Inactive)
REMARK    1  A    between atoms: N_10  and  C_17
REMARK    2  A    between atoms: C_16  and  C_17
REMARK    3  A    between atoms: C_16  and  C_18
REMARK    4  A    between atoms: C_17  and  C_19
REMARK    5  A    between atoms: C_19  and  C_21
REMARK    6  A    between atoms: C_20  and  C_22
REMARK                            x       y       z     vdW  Elec       q    Type
REMARK                         _______ _______ _______ _____ _____    ______ ____
ROOT
ATOM      1  O   UNL     1       5.531   3.457  -5.936  0.00  0.00    +0.000 OA
ATOM      2  N   UNL     1       3.493   3.166  -4.944  0.00  0.00    +0.000 N 
ATOM      3  N   UNL     1       1.008   4.408  -4.820  0.00  0.00    +0.000 N 
ATOM      4  N   UNL     1       1.782   6.398  -4.359  0.00  0.00    +0.000 NA
ATOM      5  N   UNL     1       0.421   6.482  -4.525  0.00  0.00    +0.000 NA
ATOM      6  C   UNL     1       2.333   2.361  -4.548  0.00  0.00    +0.000 C 
ATOM      7  C   UNL     1       1.045   2.987  -5.088  0.00  0.00    +0.000 C 
ATOM      8  C   UNL     1       3.499   4.554  -4.461  0.00  0.00    +0.000 C 
ATOM      9  C   UNL     1       2.134   5.147  -4.550  0.00  0.00    +0.000 A 
ATOM     10  C   UNL     1       4.610   2.703  -5.630  0.00  0.00    +0.000 C 
ATOM     11  C   UNL     1      -0.048   5.280  -4.812  0.00  0.00    +0.000 A 
ENDROOT
BRANCH  11  15
ATOM     12  F   UNL     1      -1.630   3.595  -5.338  0.00  0.00    +0.000 F 
ATOM     13  F   UNL     1      -1.979   5.582  -6.142  0.00  0.00    +0.000 F 
ATOM     14  F   UNL     1      -2.267   5.192  -4.011  0.00  0.00    +0.000 F 
ATOM     15  C   UNL     1      -1.466   4.920  -5.074  0.00  0.00    +0.000 C 
ENDBRANCH  11  15
BRANCH  10  16
ATOM     16  C   UNL     1       4.636   1.225  -5.992  0.00  0.00    +0.000 C 
BRANCH  16  17
ATOM     17  C   UNL     1       5.907   0.774  -6.740  0.00  0.00    +0.000 C 
BRANCH  17  18
ATOM     18  N   UNL     1       5.701  -0.632  -7.152  0.00  0.00    +0.000 NA
ATOM     19  H   UNL     1       6.562  -0.989  -7.569  0.00  0.00    +0.000 HD
ATOM     20  H   UNL     1       5.007  -0.664  -7.900  0.00  0.00    +0.000 HD
ENDBRANCH  17  18
BRANCH  17  21
ATOM     21  C   UNL     1       7.179   0.891  -5.861  0.00  0.00    +0.000 C 
BRANCH  21  24
ATOM     22  F   UNL     1       8.145   2.010  -8.328  0.00  0.00    +0.000 F 
ATOM     23  F   UNL     1      11.409  -1.559  -5.834  0.00  0.00    +0.000 F 
ATOM     24  C   UNL     1       8.488   0.507  -6.520  0.00  0.00    +0.000 A 
ATOM     25  C   UNL     1       8.920   1.112  -7.708  0.00  0.00    +0.000 A 
ATOM     26  C   UNL     1       9.348  -0.410  -5.896  0.00  0.00    +0.000 A 
ATOM     27  C   UNL     1      10.593  -0.696  -6.453  0.00  0.00    +0.000 A 
ATOM     28  C   UNL     1      10.165   0.818  -8.267  0.00  0.00    +0.000 A 
ATOM     29  C   UNL     1      11.010  -0.088  -7.632  0.00  0.00    +0.000 A 
ENDBRANCH  21  24
ENDBRANCH  17  21
ENDBRANCH  16  17
ENDBRANCH  10  16
TORSDOF 6
