REMARK  Name = 24778064
REMARK  13 active torsions:
REMARK  status: ('A' for Active; 'I' for Inactive)
REMARK    1  A    between atoms: O_11  and  C_31
REMARK    2  A    between atoms: O_11  and  C_32
REMARK    3  A    between atoms: N_17  and  C_25
REMARK    4  A    between atoms: C_18  and  C_22
REMARK    5  A    between atoms: C_22  and  C_27
REMARK    6  A    between atoms: C_23  and  C_24
REMARK    7  A    between atoms: C_24  and  C_25
REMARK    8  A    between atoms: C_25  and  C_28
REMARK    9  A    between atoms: C_26  and  C_29
REMARK   10  A    between atoms: C_28  and  C_30
REMARK   11  A    between atoms: C_32  and  C_35
REMARK   12  A    between atoms: C_32  and  C_36
REMARK   13  A    between atoms: C_32  and  C_37
REMARK                            x       y       z     vdW  Elec       q    Type
REMARK                         _______ _______ _______ _____ _____    ______ ____
ROOT
ATOM      1  C   UNL     1      -0.465   3.244  -4.077  0.00  0.00    +0.000 C 
ENDROOT
BRANCH   1  11
ATOM      2  O   UNL     1      -0.380   4.931  -5.816  0.00  0.00    +0.000 OA
ATOM      3  N   UNL     1      -0.353   2.752  -6.541  0.00  0.00    +0.000 N 
ATOM      4  N   UNL     1       0.938   0.948  -8.231  0.00  0.00    +0.000 N 
ATOM      5  N   UNL     1       1.165   2.326  -9.896  0.00  0.00    +0.000 NA
ATOM      6  N   UNL     1       1.845   1.172 -10.191  0.00  0.00    +0.000 NA
ATOM      7  C   UNL     1      -0.293   3.161  -7.994  0.00  0.00    +0.000 C 
ATOM      8  C   UNL     1      -0.527   1.317  -6.292  0.00  0.00    +0.000 C 
ATOM      9  C   UNL     1       0.594   2.182  -8.721  0.00  0.00    +0.000 A 
ATOM     10  C   UNL     1       0.597   0.494  -6.903  0.00  0.00    +0.000 C 
ATOM     11  C   UNL     1      -0.401   3.735  -5.542  0.00  0.00    +0.000 C 
ATOM     12  C   UNL     1       1.704   0.332  -9.184  0.00  0.00    +0.000 A 
BRANCH  12  16
ATOM     13  F   UNL     1       1.931  -1.662  -7.918  0.00  0.00    +0.000 F 
ATOM     14  F   UNL     1       1.830  -1.852 -10.079  0.00  0.00    +0.000 F 
ATOM     15  F   UNL     1       3.625  -1.047  -9.128  0.00  0.00    +0.000 F 
ATOM     16  C   UNL     1       2.269  -1.040  -9.082  0.00  0.00    +0.000 C 
ENDBRANCH  12  16
BRANCH   7  17
ATOM     17  C   UNL     1      -1.706   3.203  -8.596  0.00  0.00    +0.000 C 
BRANCH  17  21
ATOM     18  F   UNL     1      -0.652   4.036 -10.600  0.00  0.00    +0.000 F 
ATOM     19  F   UNL     1      -2.670   4.681 -10.153  0.00  0.00    +0.000 F 
ATOM     20  F   UNL     1      -2.319   2.638 -10.798  0.00  0.00    +0.000 F 
ATOM     21  C   UNL     1      -1.805   3.641 -10.047  0.00  0.00    +0.000 C 
ENDBRANCH  17  21
ENDBRANCH   7  17
ENDBRANCH   1  11
BRANCH   1  22
ATOM     22  C   UNL     1      -0.653   4.315  -2.969  0.00  0.00    +0.000 C 
BRANCH  22  24
ATOM     23  O   UNL     1      -0.305   5.536  -0.334  0.00  0.00    +0.000 OA
ATOM     24  N   UNL     1      -0.645   3.664  -1.633  0.00  0.00    +0.000 N 
ATOM     25  C   UNL     1      -0.560   4.352  -0.437  0.00  0.00    +0.000 C 
ATOM     26  H   UNL     1      -1.050   2.745  -1.523  0.00  0.00    +0.000 HD
BRANCH  25  27
ATOM     27  O   UNL     1      -0.837   3.504   0.585  0.00  0.00    +0.000 OA
BRANCH  27  28
ATOM     28  C   UNL     1      -0.919   3.937   1.983  0.00  0.00    +0.000 C 
ATOM     29  C   UNL     1      -2.131   4.845   2.228  0.00  0.00    +0.000 C 
ATOM     30  C   UNL     1      -1.107   2.649   2.812  0.00  0.00    +0.000 C 
ATOM     31  C   UNL     1       0.367   4.616   2.468  0.00  0.00    +0.000 C 
ENDBRANCH  27  28
ENDBRANCH  25  27
ENDBRANCH  22  24
BRANCH  22  32
ATOM     32  C   UNL     1      -1.926   5.175  -3.165  0.00  0.00    +0.000 C 
BRANCH  32  36
ATOM     33  F   UNL     1      -3.384   4.737  -0.764  0.00  0.00    +0.000 F 
ATOM     34  F   UNL     1      -5.573   2.726  -5.322  0.00  0.00    +0.000 F 
ATOM     35  F   UNL     1      -6.899   2.509  -2.934  0.00  0.00    +0.000 F 
ATOM     36  C   UNL     1      -3.235   4.420  -3.113  0.00  0.00    +0.000 A 
ATOM     37  C   UNL     1      -3.913   4.257  -1.896  0.00  0.00    +0.000 A 
ATOM     38  C   UNL     1      -3.813   3.892  -4.276  0.00  0.00    +0.000 A 
ATOM     39  C   UNL     1      -5.039   3.237  -4.205  0.00  0.00    +0.000 A 
ATOM     40  C   UNL     1      -5.141   3.614  -1.825  0.00  0.00    +0.000 A 
ATOM     41  C   UNL     1      -5.704   3.111  -2.989  0.00  0.00    +0.000 A 
ENDBRANCH  32  36
ENDBRANCH  22  32
ENDBRANCH   1  22
TORSDOF 10
