REMARK  Name = 24776703
REMARK  8 active torsions:
REMARK  status: ('A' for Active; 'I' for Inactive)
REMARK    1  A    between atoms: N_13  and  C_22
REMARK    2  A    between atoms: C_14  and  C_18
REMARK    3  A    between atoms: C_18  and  C_23
REMARK    4  A    between atoms: C_19  and  C_20
REMARK    5  A    between atoms: C_20  and  C_22
REMARK    6  A    between atoms: C_21  and  C_25
REMARK    7  A    between atoms: C_22  and  C_24
REMARK    8  A    between atoms: C_24  and  C_28
REMARK                            x       y       z     vdW  Elec       q    Type
REMARK                         _______ _______ _______ _____ _____    ______ ____
ROOT
ATOM      1  O   UNL     1       0.025   6.164  -4.636  0.00  0.00    +0.000 OA
ATOM      2  N   UNL     1      -1.493   4.456  -4.458  0.00  0.00    +0.000 N 
ATOM      3  N   UNL     1      -2.990   2.295  -5.416  0.00  0.00    +0.000 N 
ATOM      4  N   UNL     1      -3.056   2.918  -7.496  0.00  0.00    +0.000 NA
ATOM      5  N   UNL     1      -3.672   1.691  -7.385  0.00  0.00    +0.000 NA
ATOM      6  C   UNL     1      -1.702   4.423  -5.944  0.00  0.00    +0.000 C 
ATOM      7  C   UNL     1      -2.563   3.876  -3.638  0.00  0.00    +0.000 C 
ATOM      8  C   UNL     1      -2.579   3.244  -6.314  0.00  0.00    +0.000 A 
ATOM      9  C   UNL     1      -2.808   2.422  -3.993  0.00  0.00    +0.000 C 
ATOM     10  C   UNL     1      -0.613   5.394  -3.923  0.00  0.00    +0.000 C 
ATOM     11  C   UNL     1      -3.596   1.296  -6.125  0.00  0.00    +0.000 A 
ENDROOT
BRANCH  11  15
ATOM     12  F   UNL     1      -3.846  -0.066  -4.202  0.00  0.00    +0.000 F 
ATOM     13  F   UNL     1      -3.449  -1.066  -6.085  0.00  0.00    +0.000 F 
ATOM     14  F   UNL     1      -5.406  -0.166  -5.710  0.00  0.00    +0.000 F 
ATOM     15  C   UNL     1      -4.070   0.013  -5.545  0.00  0.00    +0.000 C 
ENDBRANCH  11  15
BRANCH   6  16
ATOM     16  C   UNL     1      -0.412   4.409  -6.826  0.00  0.00    +0.000 C 
BRANCH  16  18
ATOM     17  F   UNL     1      -0.477   2.011  -8.345  0.00  0.00    +0.000 F 
ATOM     18  C   UNL     1       0.510   3.237  -6.570  0.00  0.00    +0.000 A 
ATOM     19  C   UNL     1       0.383   2.065  -7.320  0.00  0.00    +0.000 A 
ATOM     20  C   UNL     1       1.481   3.280  -5.562  0.00  0.00    +0.000 A 
ATOM     21  C   UNL     1       1.134   0.934  -7.027  0.00  0.00    +0.000 A 
ATOM     22  C   UNL     1       2.245   2.148  -5.267  0.00  0.00    +0.000 A 
ATOM     23  C   UNL     1       2.057   0.969  -5.985  0.00  0.00    +0.000 A 
ENDBRANCH  16  18
ENDBRANCH   6  16
BRANCH  10  24
ATOM     24  C   UNL     1      -0.426   5.385  -2.411  0.00  0.00    +0.000 C 
BRANCH  24  25
ATOM     25  C   UNL     1       0.637   6.375  -1.916  0.00  0.00    +0.000 C 
BRANCH  25  26
ATOM     26  N   UNL     1       0.772   6.189  -0.454  0.00  0.00    +0.000 NA
ATOM     27  H   UNL     1       1.361   6.929  -0.068  0.00  0.00    +0.000 HD
ATOM     28  H   UNL     1       1.277   5.322  -0.267  0.00  0.00    +0.000 HD
ENDBRANCH  25  26
BRANCH  25  29
ATOM     29  C   UNL     1       0.251   7.840  -2.239  0.00  0.00    +0.000 C 
BRANCH  29  33
ATOM     30  F   UNL     1       2.972   7.859  -3.124  0.00  0.00    +0.000 F 
ATOM     31  F   UNL     1       1.489  11.761   0.377  0.00  0.00    +0.000 F 
ATOM     32  F   UNL     1       4.080  11.601  -0.502  0.00  0.00    +0.000 F 
ATOM     33  C   UNL     1       1.273   8.855  -1.791  0.00  0.00    +0.000 A 
ATOM     34  C   UNL     1       2.597   8.807  -2.255  0.00  0.00    +0.000 A 
ATOM     35  C   UNL     1       0.903   9.875  -0.904  0.00  0.00    +0.000 A 
ATOM     36  C   UNL     1       1.853  10.797  -0.479  0.00  0.00    +0.000 A 
ATOM     37  C   UNL     1       3.549   9.727  -1.824  0.00  0.00    +0.000 A 
ATOM     38  C   UNL     1       3.167  10.717  -0.929  0.00  0.00    +0.000 A 
ENDBRANCH  29  33
ENDBRANCH  25  29
ENDBRANCH  24  25
ENDBRANCH  10  24
TORSDOF 8
