REMARK  Name = 24777436
REMARK  13 active torsions:
REMARK  status: ('A' for Active; 'I' for Inactive)
REMARK    1  A    between atoms: O_8  and  C_28
REMARK    2  A    between atoms: O_8  and  C_29
REMARK    3  A    between atoms: N_14  and  C_24
REMARK    4  A    between atoms: C_15  and  C_20
REMARK    5  A    between atoms: C_16  and  C_21
REMARK    6  A    between atoms: C_19  and  C_22
REMARK    7  A    between atoms: C_22  and  C_24
REMARK    8  A    between atoms: C_23  and  C_26
REMARK    9  A    between atoms: C_24  and  C_25
REMARK   10  A    between atoms: C_25  and  C_27
REMARK   11  A    between atoms: C_29  and  C_32
REMARK   12  A    between atoms: C_29  and  C_33
REMARK   13  A    between atoms: C_29  and  C_34
REMARK                            x       y       z     vdW  Elec       q    Type
REMARK                         _______ _______ _______ _____ _____    ______ ____
ROOT
ATOM      1  C   UNL     1       5.106   5.212  -3.982  0.00  0.00    +0.000 C 
ENDROOT
BRANCH   1   3
ATOM      2  O   UNL     1       5.826   4.235  -1.300  0.00  0.00    +0.000 OA
ATOM      3  N   UNL     1       5.970   4.082  -3.584  0.00  0.00    +0.000 N 
ATOM      4  C   UNL     1       6.309   3.741  -2.305  0.00  0.00    +0.000 C 
ATOM      5  H   UNL     1       6.518   3.626  -4.302  0.00  0.00    +0.000 HD
BRANCH   4   6
ATOM      6  O   UNL     1       7.270   2.784  -2.343  0.00  0.00    +0.000 OA
BRANCH   6   7
ATOM      7  C   UNL     1       7.885   2.261  -1.128  0.00  0.00    +0.000 C 
ATOM      8  C   UNL     1       6.874   1.495  -0.267  0.00  0.00    +0.000 C 
ATOM      9  C   UNL     1       8.963   1.272  -1.608  0.00  0.00    +0.000 C 
ATOM     10  C   UNL     1       8.579   3.367  -0.325  0.00  0.00    +0.000 C 
ENDBRANCH   6   7
ENDBRANCH   4   6
ENDBRANCH   1   3
BRANCH   1  11
ATOM     11  C   UNL     1       3.661   5.014  -3.471  0.00  0.00    +0.000 C 
BRANCH  11  21
ATOM     12  O   UNL     1       2.936   6.814  -4.906  0.00  0.00    +0.000 OA
ATOM     13  N   UNL     1       1.316   5.854  -3.602  0.00  0.00    +0.000 N 
ATOM     14  N   UNL     1      -1.262   4.772  -3.742  0.00  0.00    +0.000 N 
ATOM     15  N   UNL     1      -2.179   6.483  -4.738  0.00  0.00    +0.000 NA
ATOM     16  N   UNL     1      -3.137   5.514  -4.557  0.00  0.00    +0.000 NA
ATOM     17  C   UNL     1      -0.213   3.974  -3.129  0.00  0.00    +0.000 C 
ATOM     18  C   UNL     1       0.271   6.761  -4.141  0.00  0.00    +0.000 C 
ATOM     19  C   UNL     1       0.874   4.906  -2.574  0.00  0.00    +0.000 C 
ATOM     20  C   UNL     1      -1.048   6.039  -4.233  0.00  0.00    +0.000 A 
ATOM     21  C   UNL     1       2.628   5.980  -4.056  0.00  0.00    +0.000 C 
ATOM     22  C   UNL     1       0.369   2.975  -4.132  0.00  0.00    +0.000 C 
ATOM     23  C   UNL     1       0.127   8.009  -3.264  0.00  0.00    +0.000 C 
ATOM     24  C   UNL     1      -2.584   4.481  -3.944  0.00  0.00    +0.000 A 
BRANCH  24  28
ATOM     25  F   UNL     1      -2.431   2.341  -2.927  0.00  0.00    +0.000 F 
ATOM     26  F   UNL     1      -3.800   2.557  -4.596  0.00  0.00    +0.000 F 
ATOM     27  F   UNL     1      -4.276   3.448  -2.658  0.00  0.00    +0.000 F 
ATOM     28  C   UNL     1      -3.268   3.222  -3.538  0.00  0.00    +0.000 C 
ENDBRANCH  24  28
ENDBRANCH  11  21
ENDBRANCH   1  11
BRANCH   1  29
ATOM     29  C   UNL     1       5.684   6.576  -3.530  0.00  0.00    +0.000 C 
BRANCH  29  33
ATOM     30  F   UNL     1       7.159   5.602  -5.884  0.00  0.00    +0.000 F 
ATOM     31  F   UNL     1       9.562   9.410  -2.815  0.00  0.00    +0.000 F 
ATOM     32  F   UNL     1      10.776   8.491  -5.090  0.00  0.00    +0.000 F 
ATOM     33  C   UNL     1       7.089   6.974  -3.939  0.00  0.00    +0.000 A 
ATOM     34  C   UNL     1       7.732   6.521  -5.099  0.00  0.00    +0.000 A 
ATOM     35  C   UNL     1       7.734   7.959  -3.169  0.00  0.00    +0.000 A 
ATOM     36  C   UNL     1       8.980   8.455  -3.552  0.00  0.00    +0.000 A 
ATOM     37  C   UNL     1       8.979   7.016  -5.483  0.00  0.00    +0.000 A 
ATOM     38  C   UNL     1       9.594   7.990  -4.707  0.00  0.00    +0.000 A 
ENDBRANCH  29  33
ENDBRANCH   1  29
TORSDOF 8
