REMARK  Name = 10160374
REMARK  7 active torsions:
REMARK  status: ('A' for Active; 'I' for Inactive)
REMARK    1  A    between atoms: N_12  and  C_18
REMARK    2  A    between atoms: C_18  and  C_19
REMARK    3  A    between atoms: C_18  and  C_21
REMARK    4  A    between atoms: C_19  and  C_20
REMARK    5  A    between atoms: C_21  and  C_23
REMARK    6  A    between atoms: C_22  and  C_24
REMARK    7  A    between atoms: C_29  and  C_30
REMARK                            x       y       z     vdW  Elec       q    Type
REMARK                         _______ _______ _______ _____ _____    ______ ____
ROOT
ATOM      1  C   UNL     1       1.059   7.200   1.312  0.00  0.00    +0.000 C 
ENDROOT
BRANCH   1   2
ATOM      2  N   UNL     1       1.128   7.230   2.788  0.00  0.00    +0.000 NA
ATOM      3  H   UNL     1       1.602   8.084   3.086  0.00  0.00    +0.000 HD
ATOM      4  H   UNL     1       1.714   6.464   3.120  0.00  0.00    +0.000 HD
ENDBRANCH   1   2
BRANCH   1   5
ATOM      5  C   UNL     1       0.202   5.992   0.909  0.00  0.00    +0.000 C 
BRANCH   5  15
ATOM      6  O   UNL     1       0.878   6.431  -1.354  0.00  0.00    +0.000 OA
ATOM      7  N   UNL     1      -0.615   4.731  -1.060  0.00  0.00    +0.000 N 
ATOM      8  N   UNL     1      -0.785   2.089  -1.872  0.00  0.00    +0.000 N 
ATOM      9  N   UNL     1      -0.573   2.499  -4.006  0.00  0.00    +0.000 NA
ATOM     10  N   UNL     1      -0.617   1.139  -3.822  0.00  0.00    +0.000 NA
ATOM     11  C   UNL     1      -1.387   3.801  -0.231  0.00  0.00    +0.000 C 
ATOM     12  C   UNL     1      -0.889   2.374  -0.456  0.00  0.00    +0.000 C 
ATOM     13  C   UNL     1      -0.707   4.524  -2.510  0.00  0.00    +0.000 C 
ATOM     14  C   UNL     1      -0.671   3.069  -2.827  0.00  0.00    +0.000 A 
ATOM     15  C   UNL     1       0.190   5.754  -0.591  0.00  0.00    +0.000 C 
ATOM     16  C   UNL     1      -0.747   0.889  -2.529  0.00  0.00    +0.000 A 
BRANCH  16  20
ATOM     17  F   UNL     1      -0.981  -0.370  -0.535  0.00  0.00    +0.000 F 
ATOM     18  F   UNL     1       0.255  -1.210  -2.108  0.00  0.00    +0.000 F 
ATOM     19  F   UNL     1      -1.919  -1.149  -2.332  0.00  0.00    +0.000 F 
ATOM     20  C   UNL     1      -0.845  -0.447  -1.887  0.00  0.00    +0.000 C 
ENDBRANCH  16  20
ENDBRANCH   5  15
ENDBRANCH   1   5
BRANCH   1  21
ATOM     21  C   UNL     1       0.472   8.523   0.755  0.00  0.00    +0.000 C 
BRANCH  21  23
ATOM     22  F   UNL     1      -0.626  10.728   2.143  0.00  0.00    +0.000 F 
ATOM     23  C   UNL     1       1.275   9.749   1.118  0.00  0.00    +0.000 A 
ATOM     24  C   UNL     1       0.672  10.796   1.815  0.00  0.00    +0.000 A 
ATOM     25  C   UNL     1       2.627   9.864   0.763  0.00  0.00    +0.000 A 
ATOM     26  C   UNL     1       1.394  11.919   2.196  0.00  0.00    +0.000 A 
ATOM     27  C   UNL     1       3.361  10.990   1.149  0.00  0.00    +0.000 A 
ATOM     28  C   UNL     1       2.754  12.023   1.875  0.00  0.00    +0.000 A 
BRANCH  28  32
ATOM     29  F   UNL     1       2.831  14.143   3.002  0.00  0.00    +0.000 F 
ATOM     30  F   UNL     1       4.593  12.879   3.127  0.00  0.00    +0.000 F 
ATOM     31  F   UNL     1       4.110  13.890   1.263  0.00  0.00    +0.000 F 
ATOM     32  C   UNL     1       3.558  13.222   2.312  0.00  0.00    +0.000 C 
ENDBRANCH  28  32
ENDBRANCH  21  23
ENDBRANCH   1  21
TORSDOF 7
