REMARK  Name = 24777692
REMARK  7 active torsions:
REMARK  status: ('A' for Active; 'I' for Inactive)
REMARK    1  A    between atoms: N_12  and  C_20
REMARK    2  A    between atoms: C_13  and  C_19
REMARK    3  A    between atoms: C_17  and  C_18
REMARK    4  A    between atoms: C_18  and  C_20
REMARK    5  A    between atoms: C_20  and  C_22
REMARK    6  A    between atoms: C_21  and  C_23
REMARK    7  A    between atoms: C_22  and  C_24
REMARK                            x       y       z     vdW  Elec       q    Type
REMARK                         _______ _______ _______ _____ _____    ______ ____
ROOT
ATOM      1  O   UNL     1       0.540   2.848   2.037  0.00  0.00    +0.000 OA
ATOM      2  N   UNL     1       1.401   4.629   0.837  0.00  0.00    +0.000 N 
ATOM      3  N   UNL     1       2.623   5.662  -1.438  0.00  0.00    +0.000 N 
ATOM      4  N   UNL     1       4.188   4.155  -1.588  0.00  0.00    +0.000 NA
ATOM      5  N   UNL     1       4.277   4.998  -2.676  0.00  0.00    +0.000 NA
ATOM      6  C   UNL     1       2.682   3.962   0.461  0.00  0.00    +0.000 C 
ATOM      7  C   UNL     1       1.387   6.084   0.611  0.00  0.00    +0.000 C 
ATOM      8  C   UNL     1       1.511   6.392  -0.869  0.00  0.00    +0.000 C 
ATOM      9  C   UNL     1       3.174   4.552  -0.847  0.00  0.00    +0.000 A 
ATOM     10  C   UNL     1       0.423   3.991   1.604  0.00  0.00    +0.000 C 
ATOM     11  C   UNL     1       2.660   2.433   0.350  0.00  0.00    +0.000 C 
ATOM     12  C   UNL     1       3.315   5.902  -2.590  0.00  0.00    +0.000 A 
ENDROOT
BRANCH  12  16
ATOM     13  F   UNL     1       1.947   7.739  -3.204  0.00  0.00    +0.000 F 
ATOM     14  F   UNL     1       2.799   6.552  -4.808  0.00  0.00    +0.000 F 
ATOM     15  F   UNL     1       4.072   7.882  -3.631  0.00  0.00    +0.000 F 
ATOM     16  C   UNL     1       3.039   7.004  -3.551  0.00  0.00    +0.000 C 
ENDBRANCH  12  16
BRANCH  10  17
ATOM     17  C   UNL     1      -0.866   4.772   1.828  0.00  0.00    +0.000 C 
BRANCH  17  18
ATOM     18  C   UNL     1      -1.974   4.009   2.574  0.00  0.00    +0.000 C 
BRANCH  18  19
ATOM     19  N   UNL     1      -2.436   2.817   1.842  0.00  0.00    +0.000 NA
ATOM     20  H   UNL     1      -2.674   2.096   2.528  0.00  0.00    +0.000 HD
ATOM     21  H   UNL     1      -1.642   2.405   1.341  0.00  0.00    +0.000 HD
ENDBRANCH  18  19
BRANCH  18  22
ATOM     22  C   UNL     1      -3.176   4.940   2.889  0.00  0.00    +0.000 C 
BRANCH  22  26
ATOM     23  F   UNL     1      -2.426   7.408   1.673  0.00  0.00    +0.000 F 
ATOM     24  F   UNL     1      -6.532   4.698  -0.666  0.00  0.00    +0.000 F 
ATOM     25  F   UNL     1      -5.666   7.072  -1.719  0.00  0.00    +0.000 F 
ATOM     26  C   UNL     1      -3.873   5.526   1.678  0.00  0.00    +0.000 A 
ATOM     27  C   UNL     1      -3.453   6.744   1.122  0.00  0.00    +0.000 A 
ATOM     28  C   UNL     1      -4.927   4.839   1.058  0.00  0.00    +0.000 A 
ATOM     29  C   UNL     1      -5.530   5.367  -0.081  0.00  0.00    +0.000 A 
ATOM     30  C   UNL     1      -4.049   7.271  -0.019  0.00  0.00    +0.000 A 
ATOM     31  C   UNL     1      -5.091   6.574  -0.615  0.00  0.00    +0.000 A 
ENDBRANCH  22  26
ENDBRANCH  18  22
ENDBRANCH  17  18
ENDBRANCH  10  17
TORSDOF 6
