REMARK  Name = 24776582
REMARK  13 active torsions:
REMARK  status: ('A' for Active; 'I' for Inactive)
REMARK    1  A    between atoms: O_8  and  C_28
REMARK    2  A    between atoms: O_8  and  C_29
REMARK    3  A    between atoms: N_14  and  C_22
REMARK    4  A    between atoms: C_15  and  C_19
REMARK    5  A    between atoms: C_19  and  C_24
REMARK    6  A    between atoms: C_20  and  C_21
REMARK    7  A    between atoms: C_21  and  C_22
REMARK    8  A    between atoms: C_22  and  C_25
REMARK    9  A    between atoms: C_23  and  C_26
REMARK   10  A    between atoms: C_25  and  C_27
REMARK   11  A    between atoms: C_29  and  C_32
REMARK   12  A    between atoms: C_29  and  C_33
REMARK   13  A    between atoms: C_29  and  C_34
REMARK                            x       y       z     vdW  Elec       q    Type
REMARK                         _______ _______ _______ _____ _____    ______ ____
ROOT
ATOM      1  C   UNL     1       5.892   1.014   6.490  0.00  0.00    +0.000 C 
ENDROOT
BRANCH   1   3
ATOM      2  O   UNL     1       3.383   2.476   6.055  0.00  0.00    +0.000 OA
ATOM      3  N   UNL     1       4.487   0.594   6.752  0.00  0.00    +0.000 N 
ATOM      4  C   UNL     1       3.382   1.386   6.605  0.00  0.00    +0.000 C 
ATOM      5  H   UNL     1       4.334  -0.240   7.303  0.00  0.00    +0.000 HD
BRANCH   4   6
ATOM      6  O   UNL     1       2.304   0.803   7.207  0.00  0.00    +0.000 OA
BRANCH   6   7
ATOM      7  C   UNL     1       1.037   1.523   7.347  0.00  0.00    +0.000 C 
ATOM      8  C   UNL     1       0.386   1.803   5.988  0.00  0.00    +0.000 C 
ATOM      9  C   UNL     1       0.089   0.601   8.140  0.00  0.00    +0.000 C 
ATOM     10  C   UNL     1       1.219   2.807   8.167  0.00  0.00    +0.000 C 
ENDBRANCH   6   7
ENDBRANCH   4   6
ENDBRANCH   1   3
BRANCH   1  11
ATOM     11  C   UNL     1       6.155   1.223   4.984  0.00  0.00    +0.000 C 
BRANCH  11  21
ATOM     12  O   UNL     1       8.543   1.271   5.359  0.00  0.00    +0.000 OA
ATOM     13  N   UNL     1       7.850   1.836   3.239  0.00  0.00    +0.000 N 
ATOM     14  N   UNL     1       8.260   1.541   0.477  0.00  0.00    +0.000 N 
ATOM     15  N   UNL     1      10.425   1.743   0.522  0.00  0.00    +0.000 NA
ATOM     16  N   UNL     1      10.031   1.534  -0.782  0.00  0.00    +0.000 NA
ATOM     17  C   UNL     1       9.245   2.092   2.759  0.00  0.00    +0.000 C 
ATOM     18  C   UNL     1       6.775   2.189   2.309  0.00  0.00    +0.000 C 
ATOM     19  C   UNL     1       9.349   1.757   1.282  0.00  0.00    +0.000 A 
ATOM     20  C   UNL     1       6.912   1.467   0.978  0.00  0.00    +0.000 C 
ATOM     21  C   UNL     1       7.620   1.455   4.568  0.00  0.00    +0.000 C 
ATOM     22  C   UNL     1       8.715   1.411  -0.809  0.00  0.00    +0.000 A 
BRANCH  22  26
ATOM     23  F   UNL     1       6.549   0.969  -1.676  0.00  0.00    +0.000 F 
ATOM     24  F   UNL     1       8.237   0.112  -2.734  0.00  0.00    +0.000 F 
ATOM     25  F   UNL     1       7.850   2.260  -2.839  0.00  0.00    +0.000 F 
ATOM     26  C   UNL     1       7.854   1.189  -2.004  0.00  0.00    +0.000 C 
ENDBRANCH  22  26
BRANCH  17  27
ATOM     27  C   UNL     1       9.691   3.567   2.926  0.00  0.00    +0.000 C 
ATOM     28  C   UNL     1       9.730   4.079   4.355  0.00  0.00    +0.000 C 
ENDBRANCH  17  27
ENDBRANCH  11  21
ENDBRANCH   1  11
BRANCH   1  29
ATOM     29  C   UNL     1       6.269   2.288   7.289  0.00  0.00    +0.000 C 
BRANCH  29  33
ATOM     30  F   UNL     1       7.456   0.414   9.094  0.00  0.00    +0.000 F 
ATOM     31  F   UNL     1       3.967   4.012  11.230  0.00  0.00    +0.000 F 
ATOM     32  F   UNL     1       5.197   2.163  12.831  0.00  0.00    +0.000 F 
ATOM     33  C   UNL     1       5.970   2.234   8.768  0.00  0.00    +0.000 A 
ATOM     34  C   UNL     1       6.591   1.299   9.607  0.00  0.00    +0.000 A 
ATOM     35  C   UNL     1       5.078   3.157   9.336  0.00  0.00    +0.000 A 
ATOM     36  C   UNL     1       4.822   3.125  10.703  0.00  0.00    +0.000 A 
ATOM     37  C   UNL     1       6.336   1.267  10.974  0.00  0.00    +0.000 A 
ATOM     38  C   UNL     1       5.447   2.186  11.515  0.00  0.00    +0.000 A 
ENDBRANCH  29  33
ENDBRANCH   1  29
TORSDOF 9
