REMARK  Name = 23661697
REMARK  7 active torsions:
REMARK  status: ('A' for Active; 'I' for Inactive)
REMARK    1  A    between atoms: N_12  and  C_19
REMARK    2  A    between atoms: C_13  and  C_20
REMARK    3  A    between atoms: C_17  and  C_18
REMARK    4  A    between atoms: C_18  and  C_19
REMARK    5  A    between atoms: C_19  and  C_21
REMARK    6  A    between atoms: C_21  and  C_23
REMARK    7  A    between atoms: C_22  and  C_24
REMARK                            x       y       z     vdW  Elec       q    Type
REMARK                         _______ _______ _______ _____ _____    ______ ____
ROOT
ATOM      1  O   UNL     1       4.753   6.379   5.682  0.00  0.00    +0.000 OA
ATOM      2  N   UNL     1       2.683   5.441   5.968  0.00  0.00    +0.000 N 
ATOM      3  N   UNL     1       0.538   4.841   4.373  0.00  0.00    +0.000 N 
ATOM      4  N   UNL     1       0.232   6.822   3.529  0.00  0.00    +0.000 NA
ATOM      5  N   UNL     1      -0.415   4.623   3.460  0.00  0.00    +0.000 NA
ATOM      6  C   UNL     1       2.022   6.614   5.348  0.00  0.00    +0.000 C 
ATOM      7  C   UNL     1       1.795   4.340   6.374  0.00  0.00    +0.000 C 
ATOM      8  C   UNL     1       1.098   3.761   5.154  0.00  0.00    +0.000 C 
ATOM      9  C   UNL     1       0.933   6.148   4.418  0.00  0.00    +0.000 A 
ATOM     10  C   UNL     1       4.071   5.433   6.069  0.00  0.00    +0.000 C 
ATOM     11  C   UNL     1       1.478   7.550   6.429  0.00  0.00    +0.000 C 
ATOM     12  C   UNL     1      -0.585   5.860   2.937  0.00  0.00    +0.000 A 
ENDROOT
BRANCH  12  16
ATOM     13  F   UNL     1      -1.590   7.466   1.462  0.00  0.00    +0.000 F 
ATOM     14  F   UNL     1      -2.836   5.808   2.134  0.00  0.00    +0.000 F 
ATOM     15  F   UNL     1      -1.249   5.462   0.675  0.00  0.00    +0.000 F 
ATOM     16  C   UNL     1      -1.557   6.150   1.811  0.00  0.00    +0.000 C 
ENDBRANCH  12  16
BRANCH  10  17
ATOM     17  C   UNL     1       4.705   4.182   6.658  0.00  0.00    +0.000 C 
BRANCH  17  18
ATOM     18  C   UNL     1       6.246   4.211   6.731  0.00  0.00    +0.000 C 
BRANCH  18  19
ATOM     19  N   UNL     1       6.692   2.862   7.143  0.00  0.00    +0.000 NA
ATOM     20  H   UNL     1       7.697   2.789   6.970  0.00  0.00    +0.000 HD
ATOM     21  H   UNL     1       6.271   2.154   6.542  0.00  0.00    +0.000 HD
ENDBRANCH  18  19
BRANCH  18  22
ATOM     22  C   UNL     1       6.750   5.279   7.737  0.00  0.00    +0.000 C 
BRANCH  22  26
ATOM     23  F   UNL     1       8.936   4.613   5.899  0.00  0.00    +0.000 F 
ATOM     24  F   UNL     1      10.312   6.496  10.823  0.00  0.00    +0.000 F 
ATOM     25  F   UNL     1      12.247   5.777   9.021  0.00  0.00    +0.000 F 
ATOM     26  C   UNL     1       8.233   5.376   8.044  0.00  0.00    +0.000 A 
ATOM     27  C   UNL     1       9.245   5.056   7.125  0.00  0.00    +0.000 A 
ATOM     28  C   UNL     1       8.621   5.884   9.296  0.00  0.00    +0.000 A 
ATOM     29  C   UNL     1       9.970   6.017   9.620  0.00  0.00    +0.000 A 
ATOM     30  C   UNL     1      10.595   5.185   7.449  0.00  0.00    +0.000 A 
ATOM     31  C   UNL     1      10.950   5.660   8.703  0.00  0.00    +0.000 A 
ENDBRANCH  22  26
ENDBRANCH  18  22
ENDBRANCH  17  18
ENDBRANCH  10  17
TORSDOF 6
