REMARK  Name = 24777805
REMARK  7 active torsions:
REMARK  status: ('A' for Active; 'I' for Inactive)
REMARK    1  A    between atoms: N_12  and  C_20
REMARK    2  A    between atoms: C_13  and  C_19
REMARK    3  A    between atoms: C_17  and  C_18
REMARK    4  A    between atoms: C_18  and  C_20
REMARK    5  A    between atoms: C_20  and  C_22
REMARK    6  A    between atoms: C_21  and  C_23
REMARK    7  A    between atoms: C_22  and  C_24
REMARK                            x       y       z     vdW  Elec       q    Type
REMARK                         _______ _______ _______ _____ _____    ______ ____
ROOT
ATOM      1  O   UNL     1       0.923   5.549  -4.433  0.00  0.00    +0.000 OA
ATOM      2  N   UNL     1       1.163   7.501  -3.250  0.00  0.00    +0.000 N 
ATOM      3  N   UNL     1      -0.216   9.356  -1.701  0.00  0.00    +0.000 N 
ATOM      4  N   UNL     1      -1.953   9.507  -3.006  0.00  0.00    +0.000 NA
ATOM      5  N   UNL     1      -2.203  10.228  -1.863  0.00  0.00    +0.000 NA
ATOM      6  C   UNL     1      -0.047   8.082  -3.883  0.00  0.00    +0.000 C 
ATOM      7  C   UNL     1       1.935   8.400  -2.386  0.00  0.00    +0.000 C 
ATOM      8  C   UNL     1       1.086   8.932  -1.238  0.00  0.00    +0.000 C 
ATOM      9  C   UNL     1      -0.760   8.968  -2.899  0.00  0.00    +0.000 A 
ATOM     10  C   UNL     1       1.560   6.215  -3.618  0.00  0.00    +0.000 C 
ATOM     11  C   UNL     1       0.314   8.870  -5.146  0.00  0.00    +0.000 C 
ATOM     12  C   UNL     1      -1.155  10.124  -1.061  0.00  0.00    +0.000 A 
ENDROOT
BRANCH  12  16
ATOM     13  F   UNL     1       0.216  10.434   0.848  0.00  0.00    +0.000 F 
ATOM     14  F   UNL     1      -1.917  10.217   1.175  0.00  0.00    +0.000 F 
ATOM     15  F   UNL     1      -1.119  12.055   0.300  0.00  0.00    +0.000 F 
ATOM     16  C   UNL     1      -1.001  10.702   0.299  0.00  0.00    +0.000 C 
ENDBRANCH  12  16
BRANCH  10  17
ATOM     17  C   UNL     1       2.810   5.665  -2.939  0.00  0.00    +0.000 C 
BRANCH  17  18
ATOM     18  C   UNL     1       3.252   4.260  -3.401  0.00  0.00    +0.000 C 
BRANCH  18  19
ATOM     19  N   UNL     1       4.359   3.857  -2.505  0.00  0.00    +0.000 NA
ATOM     20  H   UNL     1       5.227   4.305  -2.808  0.00  0.00    +0.000 HD
ATOM     21  H   UNL     1       4.532   2.857  -2.611  0.00  0.00    +0.000 HD
ENDBRANCH  18  19
BRANCH  18  22
ATOM     22  C   UNL     1       3.681   4.273  -4.886  0.00  0.00    +0.000 C 
BRANCH  22  26
ATOM     23  F   UNL     1       6.451   3.651  -4.825  0.00  0.00    +0.000 F 
ATOM     24  F   UNL     1       3.223   0.143  -7.463  0.00  0.00    +0.000 F 
ATOM     25  F   UNL     1       5.941  -0.188  -7.498  0.00  0.00    +0.000 F 
ATOM     26  C   UNL     1       4.260   3.001  -5.462  0.00  0.00    +0.000 A 
ATOM     27  C   UNL     1       5.646   2.784  -5.458  0.00  0.00    +0.000 A 
ATOM     28  C   UNL     1       3.439   2.072  -6.118  0.00  0.00    +0.000 A 
ATOM     29  C   UNL     1       4.013   0.995  -6.795  0.00  0.00    +0.000 A 
ATOM     30  C   UNL     1       6.219   1.707  -6.128  0.00  0.00    +0.000 A 
ATOM     31  C   UNL     1       5.394   0.823  -6.810  0.00  0.00    +0.000 A 
ENDBRANCH  22  26
ENDBRANCH  18  22
ENDBRANCH  17  18
ENDBRANCH  10  17
TORSDOF 6
