REMARK  Name = 10310021
REMARK  7 active torsions:
REMARK  status: ('A' for Active; 'I' for Inactive)
REMARK    1  A    between atoms: N_12  and  C_20
REMARK    2  A    between atoms: C_13  and  C_18
REMARK    3  A    between atoms: C_17  and  C_19
REMARK    4  A    between atoms: C_19  and  C_20
REMARK    5  A    between atoms: C_20  and  C_22
REMARK    6  A    between atoms: C_21  and  C_23
REMARK    7  A    between atoms: C_22  and  C_24
REMARK                            x       y       z     vdW  Elec       q    Type
REMARK                         _______ _______ _______ _____ _____    ______ ____
ROOT
ATOM      1  O   UNL     1       6.456   4.806   3.146  0.00  0.00    +0.000 OA
ATOM      2  N   UNL     1       4.248   5.406   3.312  0.00  0.00    +0.000 N 
ATOM      3  N   UNL     1       2.138   5.813   1.559  0.00  0.00    +0.000 N 
ATOM      4  N   UNL     1       3.073   7.410   0.408  0.00  0.00    +0.000 NA
ATOM      5  N   UNL     1       1.844   7.133  -0.142  0.00  0.00    +0.000 NA
ATOM      6  C   UNL     1       2.877   5.225   3.822  0.00  0.00    +0.000 C 
ATOM      7  C   UNL     1       1.956   4.871   2.643  0.00  0.00    +0.000 C 
ATOM      8  C   UNL     1       4.441   6.501   2.334  0.00  0.00    +0.000 C 
ATOM      9  C   UNL     1       3.262   6.590   1.418  0.00  0.00    +0.000 A 
ATOM     10  C   UNL     1       5.331   4.580   3.603  0.00  0.00    +0.000 C 
ATOM     11  C   UNL     1       2.374   6.463   4.588  0.00  0.00    +0.000 C 
ATOM     12  C   UNL     1       1.290   6.143   0.537  0.00  0.00    +0.000 A 
ENDROOT
BRANCH  12  16
ATOM     13  F   UNL     1      -0.242   4.424   1.093  0.00  0.00    +0.000 F 
ATOM     14  F   UNL     1      -0.090   4.985  -0.998  0.00  0.00    +0.000 F 
ATOM     15  F   UNL     1      -1.064   6.323   0.431  0.00  0.00    +0.000 F 
ATOM     16  C   UNL     1      -0.013   5.481   0.265  0.00  0.00    +0.000 C 
ENDBRANCH  12  16
BRANCH  10  17
ATOM     17  C   UNL     1       5.062   3.363   4.485  0.00  0.00    +0.000 C 
BRANCH  17  18
ATOM     18  C   UNL     1       6.277   2.435   4.684  0.00  0.00    +0.000 C 
BRANCH  18  19
ATOM     19  N   UNL     1       5.878   1.136   5.259  0.00  0.00    +0.000 NA
ATOM     20  H   UNL     1       4.985   0.827   4.881  0.00  0.00    +0.000 HD
ATOM     21  H   UNL     1       5.746   1.221   6.269  0.00  0.00    +0.000 HD
ENDBRANCH  18  19
BRANCH  18  22
ATOM     22  C   UNL     1       7.469   3.057   5.462  0.00  0.00    +0.000 C 
BRANCH  22  26
ATOM     23  F   UNL     1       5.575   2.296   7.607  0.00  0.00    +0.000 F 
ATOM     24  F   UNL     1       8.948   6.455   8.607  0.00  0.00    +0.000 F 
ATOM     25  F   UNL     1       7.130   5.652  10.494  0.00  0.00    +0.000 F 
ATOM     26  C   UNL     1       7.294   3.738   6.805  0.00  0.00    +0.000 A 
ATOM     27  C   UNL     1       6.402   3.332   7.806  0.00  0.00    +0.000 A 
ATOM     28  C   UNL     1       8.167   4.804   7.113  0.00  0.00    +0.000 A 
ATOM     29  C   UNL     1       8.108   5.444   8.349  0.00  0.00    +0.000 A 
ATOM     30  C   UNL     1       6.337   3.974   9.043  0.00  0.00    +0.000 A 
ATOM     31  C   UNL     1       7.192   5.033   9.306  0.00  0.00    +0.000 A 
ENDBRANCH  22  26
ENDBRANCH  18  22
ENDBRANCH  17  18
ENDBRANCH  10  17
TORSDOF 6
