REMARK  Name = 11258174
REMARK  6 active torsions:
REMARK  status: ('A' for Active; 'I' for Inactive)
REMARK    1  A    between atoms: N_11  and  C_18
REMARK    2  A    between atoms: C_17  and  C_18
REMARK    3  A    between atoms: C_17  and  C_19
REMARK    4  A    between atoms: C_18  and  C_21
REMARK    5  A    between atoms: C_20  and  C_23
REMARK    6  A    between atoms: C_21  and  C_22
REMARK                            x       y       z     vdW  Elec       q    Type
REMARK                         _______ _______ _______ _____ _____    ______ ____
ROOT
ATOM      1  O   UNL     1       8.067   2.350   2.404  0.00  0.00    +0.000 OA
ATOM      2  N   UNL     1       9.537   1.380   3.879  0.00  0.00    +0.000 N 
ATOM      3  N   UNL     1      12.367   1.740   3.124  0.00  0.00    +0.000 N 
ATOM      4  N   UNL     1      11.827   3.789   2.573  0.00  0.00    +0.000 NA
ATOM      5  N   UNL     1      12.982   3.465   1.921  0.00  0.00    +0.000 NA
ATOM      6  C   UNL     1       9.989   0.267   4.710  0.00  0.00    +0.000 C 
ATOM      7  C   UNL     1      11.494   0.265   4.999  0.00  0.00    +0.000 C 
ATOM      8  C   UNL     1      12.365   0.431   3.752  0.00  0.00    +0.000 C 
ATOM      9  C   UNL     1      10.191   2.672   4.085  0.00  0.00    +0.000 C 
ATOM     10  C   UNL     1      11.436   2.742   3.269  0.00  0.00    +0.000 A 
ATOM     11  C   UNL     1       8.443   1.346   3.012  0.00  0.00    +0.000 C 
ATOM     12  C   UNL     1      13.302   2.220   2.225  0.00  0.00    +0.000 A 
ENDROOT
BRANCH  12  16
ATOM     13  F   UNL     1      14.549   0.197   2.155  0.00  0.00    +0.000 F 
ATOM     14  F   UNL     1      15.647   2.065   1.994  0.00  0.00    +0.000 F 
ATOM     15  F   UNL     1      14.422   1.362   0.329  0.00  0.00    +0.000 F 
ATOM     16  C   UNL     1      14.466   1.471   1.683  0.00  0.00    +0.000 C 
ENDBRANCH  12  16
BRANCH  11  17
ATOM     17  C   UNL     1       7.716   0.019   2.841  0.00  0.00    +0.000 C 
BRANCH  17  18
ATOM     18  C   UNL     1       6.550   0.081   1.824  0.00  0.00    +0.000 C 
BRANCH  18  19
ATOM     19  N   UNL     1       5.783  -1.175   1.973  0.00  0.00    +0.000 NA
ATOM     20  H   UNL     1       6.059  -1.834   1.241  0.00  0.00    +0.000 HD
ATOM     21  H   UNL     1       4.799  -0.980   1.782  0.00  0.00    +0.000 HD
ENDBRANCH  18  19
BRANCH  18  22
ATOM     22  C   UNL     1       7.055   0.282   0.370  0.00  0.00    +0.000 C 
BRANCH  22  25
ATOM     23  F   UNL     1       6.371  -2.022  -1.133  0.00  0.00    +0.000 F 
ATOM     24  F   UNL     1       3.722   2.554  -2.419  0.00  0.00    +0.000 F 
ATOM     25  C   UNL     1       5.996   0.280  -0.707  0.00  0.00    +0.000 A 
ATOM     26  C   UNL     1       5.726  -0.887  -1.439  0.00  0.00    +0.000 A 
ATOM     27  C   UNL     1       5.293   1.445  -1.045  0.00  0.00    +0.000 A 
ATOM     28  C   UNL     1       4.375   1.428  -2.094  0.00  0.00    +0.000 A 
ATOM     29  C   UNL     1       4.809  -0.901  -2.488  0.00  0.00    +0.000 A 
ATOM     30  C   UNL     1       4.129   0.270  -2.821  0.00  0.00    +0.000 A 
ENDBRANCH  22  25
ENDBRANCH  18  22
ENDBRANCH  17  18
ENDBRANCH  11  17
TORSDOF 6
