REMARK  Name = 9922961
REMARK  6 active torsions:
REMARK  status: ('A' for Active; 'I' for Inactive)
REMARK    1  A    between atoms: N_6  and  C_13
REMARK    2  A    between atoms: C_12  and  C_13
REMARK    3  A    between atoms: C_12  and  C_14
REMARK    4  A    between atoms: C_13  and  C_15
REMARK    5  A    between atoms: C_15  and  C_17
REMARK    6  A    between atoms: C_16  and  C_18
REMARK                            x       y       z     vdW  Elec       q    Type
REMARK                         _______ _______ _______ _____ _____    ______ ____
ROOT
ATOM      1  C   UNL     1       1.452  -4.538   1.164  0.00  0.00    +0.000 C 
ENDROOT
BRANCH   1  11
ATOM      2  O   UNL     1       3.588  -3.944   2.091  0.00  0.00    +0.000 OA
ATOM      3  N   UNL     1       3.605  -4.454  -0.140  0.00  0.00    +0.000 N 
ATOM      4  N   UNL     1       4.785  -3.275  -2.344  0.00  0.00    +0.000 N 
ATOM      5  N   UNL     1       3.167  -3.742  -3.733  0.00  0.00    +0.000 NA
ATOM      6  N   UNL     1       4.034  -2.863  -4.343  0.00  0.00    +0.000 NA
ATOM      7  C   UNL     1       5.081  -4.418  -0.208  0.00  0.00    +0.000 C 
ATOM      8  C   UNL     1       5.545  -3.276  -1.113  0.00  0.00    +0.000 C 
ATOM      9  C   UNL     1       2.964  -4.751  -1.425  0.00  0.00    +0.000 C 
ATOM     10  C   UNL     1       3.603  -3.952  -2.511  0.00  0.00    +0.000 A 
ATOM     11  C   UNL     1       2.963  -4.261   1.077  0.00  0.00    +0.000 C 
ATOM     12  C   UNL     1       4.982  -2.546  -3.483  0.00  0.00    +0.000 A 
ATOM     13  C   UNL     1       6.044  -1.536  -3.675  0.00  0.00    +0.000 C 
ENDBRANCH   1  11
BRANCH   1  14
ATOM     14  C   UNL     1       0.497  -3.321   1.303  0.00  0.00    +0.000 C 
BRANCH  14  15
ATOM     15  N   UNL     1      -0.874  -3.878   1.409  0.00  0.00    +0.000 NA
ATOM     16  H   UNL     1      -0.950  -4.465   2.240  0.00  0.00    +0.000 HD
ATOM     17  H   UNL     1      -1.538  -3.115   1.544  0.00  0.00    +0.000 HD
ENDBRANCH  14  15
BRANCH  14  18
ATOM     18  C   UNL     1       0.563  -2.350   0.097  0.00  0.00    +0.000 C 
BRANCH  18  20
ATOM     19  F   UNL     1       0.356  -0.232   2.039  0.00  0.00    +0.000 F 
ATOM     20  C   UNL     1      -0.456  -1.226   0.046  0.00  0.00    +0.000 A 
ATOM     21  C   UNL     1      -0.500  -0.205   1.005  0.00  0.00    +0.000 A 
ATOM     22  C   UNL     1      -1.366  -1.145  -1.023  0.00  0.00    +0.000 A 
ATOM     23  C   UNL     1      -1.399   0.859   0.906  0.00  0.00    +0.000 A 
ATOM     24  C   UNL     1      -2.271  -0.079  -1.131  0.00  0.00    +0.000 A 
ATOM     25  C   UNL     1      -2.287   0.926  -0.166  0.00  0.00    +0.000 A 
ENDBRANCH  18  20
ENDBRANCH  14  18
ENDBRANCH   1  14
TORSDOF 5
