REMARK  Name = 9887588
REMARK  5 active torsions:
REMARK  status: ('A' for Active; 'I' for Inactive)
REMARK    1  A    between atoms: C_17  and  C_20
REMARK    2  A    between atoms: C_18  and  C_19
REMARK    3  A    between atoms: C_19  and  C_21
REMARK    4  A    between atoms: C_21  and  C_22
REMARK    5  A    between atoms: C_22  and  C_23
REMARK                            x       y       z     vdW  Elec       q    Type
REMARK                         _______ _______ _______ _____ _____    ______ ____
ROOT
ATOM      1  O   UNL     1       5.267  -4.003   5.242  0.00  0.00    +0.000 OA
ATOM      2  N   UNL     1       5.296  -2.597   3.439  0.00  0.00    +0.000 N 
ATOM      3  N   UNL     1       3.602  -1.729   1.428  0.00  0.00    +0.000 N 
ATOM      4  N   UNL     1       2.999  -3.715   0.762  0.00  0.00    +0.000 NA
ATOM      5  N   UNL     1       2.272  -2.778   0.067  0.00  0.00    +0.000 NA
ATOM      6  C   UNL     1       5.597  -1.324   2.776  0.00  0.00    +0.000 C 
ATOM      7  C   UNL     1       4.322  -0.729   2.185  0.00  0.00    +0.000 C 
ATOM      8  C   UNL     1       4.766  -3.656   2.564  0.00  0.00    +0.000 C 
ATOM      9  C   UNL     1       3.786  -3.077   1.597  0.00  0.00    +0.000 A 
ATOM     10  C   UNL     1       2.624  -1.577   0.485  0.00  0.00    +0.000 A 
ATOM     11  C   UNL     1       5.522  -2.894   4.770  0.00  0.00    +0.000 C 
ENDROOT
BRANCH  10  15
ATOM     12  F   UNL     1       2.659   0.788   0.658  0.00  0.00    +0.000 F 
ATOM     13  F   UNL     1       0.753  -0.160   0.241  0.00  0.00    +0.000 F 
ATOM     14  F   UNL     1       2.296  -0.069  -1.305  0.00  0.00    +0.000 F 
ATOM     15  C   UNL     1       2.087  -0.271   0.021  0.00  0.00    +0.000 C 
ENDBRANCH  10  15
BRANCH  11  16
ATOM     16  C   UNL     1       6.132  -1.834   5.651  0.00  0.00    +0.000 C 
BRANCH  16  18
ATOM     17  O   UNL     1       8.296  -0.898   5.279  0.00  0.00    +0.000 OA
ATOM     18  C   UNL     1       7.637  -1.879   5.639  0.00  0.00    +0.000 C 
BRANCH  18  19
ATOM     19  C   UNL     1       8.319  -3.144   6.122  0.00  0.00    +0.000 C 
BRANCH  19  23
ATOM     20  F   UNL     1       6.484  -4.081   8.059  0.00  0.00    +0.000 F 
ATOM     21  F   UNL     1      11.265  -2.268   9.923  0.00  0.00    +0.000 F 
ATOM     22  F   UNL     1       9.421  -3.324  11.650  0.00  0.00    +0.000 F 
ATOM     23  C   UNL     1       8.608  -3.141   7.599  0.00  0.00    +0.000 A 
ATOM     24  C   UNL     1       7.666  -3.641   8.507  0.00  0.00    +0.000 A 
ATOM     25  C   UNL     1       9.827  -2.657   8.094  0.00  0.00    +0.000 A 
ATOM     26  C   UNL     1      10.090  -2.715   9.462  0.00  0.00    +0.000 A 
ATOM     27  C   UNL     1       7.928  -3.705   9.871  0.00  0.00    +0.000 A 
ATOM     28  C   UNL     1       9.150  -3.245  10.341  0.00  0.00    +0.000 A 
ENDBRANCH  19  23
ENDBRANCH  18  19
ENDBRANCH  16  18
ENDBRANCH  11  16
TORSDOF 5
