REMARK  Name = 24776584
REMARK  8 active torsions:
REMARK  status: ('A' for Active; 'I' for Inactive)
REMARK    1  A    between atoms: N_15  and  C_24
REMARK    2  A    between atoms: C_16  and  C_20
REMARK    3  A    between atoms: C_20  and  C_25
REMARK    4  A    between atoms: C_21  and  C_22
REMARK    5  A    between atoms: C_22  and  C_24
REMARK    6  A    between atoms: C_23  and  C_27
REMARK    7  A    between atoms: C_24  and  C_26
REMARK    8  A    between atoms: C_26  and  C_28
REMARK                            x       y       z     vdW  Elec       q    Type
REMARK                         _______ _______ _______ _____ _____    ______ ____
ROOT
ATOM      1  O   UNL     1       2.686  -2.417   2.618  0.00  0.00    +0.000 OA
ATOM      2  N   UNL     1       2.957  -0.691   4.091  0.00  0.00    +0.000 N 
ATOM      3  N   UNL     1       1.866   1.485   5.452  0.00  0.00    +0.000 N 
ATOM      4  N   UNL     1       0.755   2.293   3.761  0.00  0.00    +0.000 NA
ATOM      5  N   UNL     1       0.435   3.019   4.882  0.00  0.00    +0.000 NA
ATOM      6  C   UNL     1       2.199   0.274   3.239  0.00  0.00    +0.000 C 
ATOM      7  C   UNL     1       3.708  -0.091   5.203  0.00  0.00    +0.000 C 
ATOM      8  C   UNL     1       1.602   1.353   4.113  0.00  0.00    +0.000 A 
ATOM      9  C   UNL     1       2.775   0.623   6.171  0.00  0.00    +0.000 C 
ATOM     10  C   UNL     1       3.161  -1.999   3.672  0.00  0.00    +0.000 C 
ATOM     11  C   UNL     1       1.097   2.520   5.912  0.00  0.00    +0.000 A 
ENDROOT
BRANCH  11  15
ATOM     12  F   UNL     1       1.814   2.232   8.152  0.00  0.00    +0.000 F 
ATOM     13  F   UNL     1       1.479   4.262   7.457  0.00  0.00    +0.000 F 
ATOM     14  F   UNL     1      -0.216   2.935   7.836  0.00  0.00    +0.000 F 
ATOM     15  C   UNL     1       1.039   2.985   7.323  0.00  0.00    +0.000 C 
ENDBRANCH  11  15
BRANCH   6  16
ATOM     16  C   UNL     1       1.128  -0.259   2.276  0.00  0.00    +0.000 C 
BRANCH  16  20
ATOM     17  F   UNL     1       0.176  -1.143   4.291  0.00  0.00    +0.000 F 
ATOM     18  F   UNL     1      -0.050  -2.310   2.468  0.00  0.00    +0.000 F 
ATOM     19  F   UNL     1      -1.179  -0.477   2.721  0.00  0.00    +0.000 F 
ATOM     20  C   UNL     1       0.026  -1.049   2.951  0.00  0.00    +0.000 C 
ENDBRANCH  16  20
ENDBRANCH   6  16
BRANCH  10  21
ATOM     21  C   UNL     1       3.943  -2.933   4.581  0.00  0.00    +0.000 C 
BRANCH  21  22
ATOM     22  C   UNL     1       4.063  -4.346   3.982  0.00  0.00    +0.000 C 
BRANCH  22  23
ATOM     23  N   UNL     1       4.644  -5.238   5.003  0.00  0.00    +0.000 NA
ATOM     24  H   UNL     1       4.749  -6.175   4.609  0.00  0.00    +0.000 HD
ATOM     25  H   UNL     1       3.989  -5.345   5.779  0.00  0.00    +0.000 HD
ENDBRANCH  22  23
BRANCH  22  26
ATOM     26  C   UNL     1       4.945  -4.327   2.707  0.00  0.00    +0.000 C 
BRANCH  26  30
ATOM     27  F   UNL     1       7.446  -5.529   2.147  0.00  0.00    +0.000 F 
ATOM     28  F   UNL     1       3.025  -8.219   0.446  0.00  0.00    +0.000 F 
ATOM     29  F   UNL     1       5.524  -9.222  -0.038  0.00  0.00    +0.000 F 
ATOM     30  C   UNL     1       5.080  -5.657   2.005  0.00  0.00    +0.000 A 
ATOM     31  C   UNL     1       6.348  -6.187   1.743  0.00  0.00    +0.000 A 
ATOM     32  C   UNL     1       3.950  -6.353   1.549  0.00  0.00    +0.000 A 
ATOM     33  C   UNL     1       4.108  -7.558   0.868  0.00  0.00    +0.000 A 
ATOM     34  C   UNL     1       6.508  -7.384   1.059  0.00  0.00    +0.000 A 
ATOM     35  C   UNL     1       5.380  -8.067   0.626  0.00  0.00    +0.000 A 
ENDBRANCH  26  30
ENDBRANCH  22  26
ENDBRANCH  21  22
ENDBRANCH  10  21
TORSDOF 8
