REMARK  Name = 10026124
REMARK  10 active torsions:
REMARK  status: ('A' for Active; 'I' for Inactive)
REMARK    1  A    between atoms: N_9  and  C_20
REMARK    2  A    between atoms: N_11  and  C_18
REMARK    3  A    between atoms: C_16  and  C_17
REMARK    4  A    between atoms: C_16  and  C_18
REMARK    5  A    between atoms: C_18  and  C_21
REMARK    6  A    between atoms: C_19  and  C_22
REMARK    7  A    between atoms: C_20  and  C_24
REMARK    8  A    between atoms: C_20  and  C_25
REMARK    9  A    between atoms: C_20  and  C_26
REMARK   10  A    between atoms: C_21  and  C_23
REMARK                            x       y       z     vdW  Elec       q    Type
REMARK                         _______ _______ _______ _____ _____    ______ ____
ROOT
ATOM      1  O   UNL     1       3.789   3.872  -1.412  0.00  0.00    +0.000 OA
ATOM      2  N   UNL     1       5.612   3.232  -0.197  0.00  0.00    +0.000 N 
ATOM      3  N   UNL     1       5.422   2.485   2.471  0.00  0.00    +0.000 N 
ATOM      4  N   UNL     1       7.092   3.737   3.134  0.00  0.00    +0.000 NA
ATOM      5  N   UNL     1       6.421   3.268   4.247  0.00  0.00    +0.000 NA
ATOM      6  C   UNL     1       5.033   1.911   0.098  0.00  0.00    +0.000 C 
ATOM      7  C   UNL     1       4.518   1.828   1.543  0.00  0.00    +0.000 C 
ATOM      8  C   UNL     1       6.792   3.538   0.615  0.00  0.00    +0.000 C 
ATOM      9  C   UNL     1       6.470   3.282   2.061  0.00  0.00    +0.000 A 
ATOM     10  C   UNL     1       4.939   4.111  -1.036  0.00  0.00    +0.000 C 
ATOM     11  C   UNL     1       5.389   2.538   3.851  0.00  0.00    +0.000 A 
ENDROOT
BRANCH  11  14
ATOM     12  O   UNL     1       3.400   1.377   4.335  0.00  0.00    +0.000 OA
ATOM     13  N   UNL     1       4.623   2.150   6.129  0.00  0.00    +0.000 N 
ATOM     14  C   UNL     1       4.391   1.964   4.761  0.00  0.00    +0.000 C 
ATOM     15  H   UNL     1       5.415   2.751   6.341  0.00  0.00    +0.000 HD
BRANCH  13  16
ATOM     16  C   UNL     1       3.634   1.905   7.218  0.00  0.00    +0.000 C 
ATOM     17  C   UNL     1       3.074   0.469   7.211  0.00  0.00    +0.000 C 
ATOM     18  C   UNL     1       4.286   2.107   8.609  0.00  0.00    +0.000 C 
ATOM     19  C   UNL     1       2.474   2.910   7.117  0.00  0.00    +0.000 C 
ENDBRANCH  13  16
ENDBRANCH  11  14
BRANCH  10  20
ATOM     20  C   UNL     1       5.668   5.334  -1.599  0.00  0.00    +0.000 C 
BRANCH  20  21
ATOM     21  C   UNL     1       5.262   6.718  -1.036  0.00  0.00    +0.000 C 
BRANCH  21  22
ATOM     22  N   UNL     1       5.965   7.743  -1.837  0.00  0.00    +0.000 NA
ATOM     23  H   UNL     1       5.640   7.705  -2.805  0.00  0.00    +0.000 HD
ATOM     24  H   UNL     1       5.712   8.675  -1.504  0.00  0.00    +0.000 HD
ENDBRANCH  21  22
BRANCH  21  25
ATOM     25  C   UNL     1       5.650   6.860   0.453  0.00  0.00    +0.000 C 
BRANCH  25  29
ATOM     26  F   UNL     1       3.154   8.265   0.714  0.00  0.00    +0.000 F 
ATOM     27  F   UNL     1       7.518  10.535   3.063  0.00  0.00    +0.000 F 
ATOM     28  F   UNL     1       5.052  11.692   3.347  0.00  0.00    +0.000 F 
ATOM     29  C   UNL     1       5.487   8.203   1.132  0.00  0.00    +0.000 A 
ATOM     30  C   UNL     1       4.238   8.821   1.274  0.00  0.00    +0.000 A 
ATOM     31  C   UNL     1       6.596   8.814   1.738  0.00  0.00    +0.000 A 
ATOM     32  C   UNL     1       6.446   9.985   2.475  0.00  0.00    +0.000 A 
ATOM     33  C   UNL     1       4.081   9.997   2.012  0.00  0.00    +0.000 A 
ATOM     34  C   UNL     1       5.192  10.569   2.622  0.00  0.00    +0.000 A 
ENDBRANCH  25  29
ENDBRANCH  21  25
ENDBRANCH  20  21
ENDBRANCH  10  20
TORSDOF 7
