REMARK  Name = 24777442
REMARK  8 active torsions:
REMARK  status: ('A' for Active; 'I' for Inactive)
REMARK    1  A    between atoms: N_12  and  C_22
REMARK    2  A    between atoms: C_13  and  C_18
REMARK    3  A    between atoms: C_14  and  C_19
REMARK    4  A    between atoms: C_17  and  C_21
REMARK    5  A    between atoms: C_20  and  C_24
REMARK    6  A    between atoms: C_21  and  C_22
REMARK    7  A    between atoms: C_22  and  C_23
REMARK    8  A    between atoms: C_23  and  C_25
REMARK                            x       y       z     vdW  Elec       q    Type
REMARK                         _______ _______ _______ _____ _____    ______ ____
ROOT
ATOM      1  O   UNL     1      -2.171   1.866   2.276  0.00  0.00    +0.000 OA
ATOM      2  N   UNL     1      -0.174   2.504   3.190  0.00  0.00    +0.000 N 
ATOM      3  N   UNL     1       2.442   1.572   3.010  0.00  0.00    +0.000 N 
ATOM      4  N   UNL     1       2.052  -0.406   3.846  0.00  0.00    +0.000 NA
ATOM      5  N   UNL     1       3.382  -0.324   3.511  0.00  0.00    +0.000 NA
ATOM      6  C   UNL     1       2.165   2.934   2.575  0.00  0.00    +0.000 C 
ATOM      7  C   UNL     1       0.050   1.152   3.755  0.00  0.00    +0.000 C 
ATOM      8  C   UNL     1       0.937   3.451   3.340  0.00  0.00    +0.000 C 
ATOM      9  C   UNL     1       1.485   0.743   3.548  0.00  0.00    +0.000 A 
ATOM     10  C   UNL     1      -1.327   2.739   2.445  0.00  0.00    +0.000 C 
ATOM     11  C   UNL     1       1.958   2.988   1.060  0.00  0.00    +0.000 C 
ATOM     12  C   UNL     1      -0.321   1.130   5.238  0.00  0.00    +0.000 C 
ATOM     13  C   UNL     1       3.622   0.875   3.007  0.00  0.00    +0.000 A 
ENDROOT
BRANCH  13  17
ATOM     14  F   UNL     1       4.843   2.654   2.015  0.00  0.00    +0.000 F 
ATOM     15  F   UNL     1       5.459   0.630   1.534  0.00  0.00    +0.000 F 
ATOM     16  F   UNL     1       5.853   1.459   3.518  0.00  0.00    +0.000 F 
ATOM     17  C   UNL     1       4.930   1.393   2.524  0.00  0.00    +0.000 C 
ENDBRANCH  13  17
BRANCH  10  18
ATOM     18  C   UNL     1      -1.480   4.127   1.833  0.00  0.00    +0.000 C 
BRANCH  18  19
ATOM     19  C   UNL     1      -2.743   4.314   0.975  0.00  0.00    +0.000 C 
BRANCH  19  20
ATOM     20  N   UNL     1      -2.637   5.633   0.311  0.00  0.00    +0.000 NA
ATOM     21  H   UNL     1      -3.411   5.734  -0.349  0.00  0.00    +0.000 HD
ATOM     22  H   UNL     1      -1.794   5.666  -0.262  0.00  0.00    +0.000 HD
ENDBRANCH  19  20
BRANCH  19  23
ATOM     23  C   UNL     1      -4.034   4.239   1.829  0.00  0.00    +0.000 C 
BRANCH  23  27
ATOM     24  F   UNL     1      -4.943   2.808  -0.486  0.00  0.00    +0.000 F 
ATOM     25  F   UNL     1      -8.198   6.753   1.391  0.00  0.00    +0.000 F 
ATOM     26  F   UNL     1      -8.918   5.302  -0.816  0.00  0.00    +0.000 F 
ATOM     27  C   UNL     1      -5.329   4.532   1.101  0.00  0.00    +0.000 A 
ATOM     28  C   UNL     1      -5.726   3.791  -0.021  0.00  0.00    +0.000 A 
ATOM     29  C   UNL     1      -6.186   5.537   1.576  0.00  0.00    +0.000 A 
ATOM     30  C   UNL     1      -7.392   5.789   0.925  0.00  0.00    +0.000 A 
ATOM     31  C   UNL     1      -6.929   4.046  -0.675  0.00  0.00    +0.000 A 
ATOM     32  C   UNL     1      -7.756   5.051  -0.195  0.00  0.00    +0.000 A 
ENDBRANCH  23  27
ENDBRANCH  19  23
ENDBRANCH  18  19
ENDBRANCH  10  18
TORSDOF 6
