REMARK  Name = 24778191
REMARK  15 active torsions:
REMARK  status: ('A' for Active; 'I' for Inactive)
REMARK    1  A    between atoms: O_9  and  C_30
REMARK    2  A    between atoms: O_9  and  C_31
REMARK    3  A    between atoms: N_15  and  C_24
REMARK    4  A    between atoms: N_16  and  C_32
REMARK    5  A    between atoms: N_16  and  C_33
REMARK    6  A    between atoms: C_17  and  C_21
REMARK    7  A    between atoms: C_21  and  C_27
REMARK    8  A    between atoms: C_22  and  C_23
REMARK    9  A    between atoms: C_23  and  C_24
REMARK   10  A    between atoms: C_24  and  C_26
REMARK   11  A    between atoms: C_25  and  C_28
REMARK   12  A    between atoms: C_26  and  C_29
REMARK   13  A    between atoms: C_31  and  C_38
REMARK   14  A    between atoms: C_31  and  C_39
REMARK   15  A    between atoms: C_31  and  C_40
REMARK                            x       y       z     vdW  Elec       q    Type
REMARK                         _______ _______ _______ _____ _____    ______ ____
ROOT
ATOM      1  O   UNL     1       7.812   0.415  -2.906  0.00  0.00    +0.000 OA
ATOM      2  N   UNL     1       5.707   0.758  -3.794  0.00  0.00    +0.000 N 
ATOM      3  N   UNL     1       3.361   2.223  -4.428  0.00  0.00    +0.000 N 
ATOM      4  N   UNL     1       3.588   3.682  -2.826  0.00  0.00    +0.000 NA
ATOM      5  N   UNL     1       2.355   3.858  -3.419  0.00  0.00    +0.000 NA
ATOM      6  C   UNL     1       5.564   2.101  -3.163  0.00  0.00    +0.000 C 
ATOM      7  C   UNL     1       4.495   0.127  -4.343  0.00  0.00    +0.000 C 
ATOM      8  C   UNL     1       3.689   1.063  -5.213  0.00  0.00    +0.000 C 
ATOM      9  C   UNL     1       4.192   2.688  -3.437  0.00  0.00    +0.000 A 
ATOM     10  C   UNL     1       6.908   0.057  -3.653  0.00  0.00    +0.000 C 
ATOM     11  C   UNL     1       2.215   2.967  -4.388  0.00  0.00    +0.000 A 
ENDROOT
BRANCH  11  15
ATOM     12  F   UNL     1       1.225   1.818  -6.221  0.00  0.00    +0.000 F 
ATOM     13  F   UNL     1       0.680   3.896  -5.928  0.00  0.00    +0.000 F 
ATOM     14  F   UNL     1      -0.061   2.361  -4.560  0.00  0.00    +0.000 F 
ATOM     15  C   UNL     1       1.029   2.766  -5.264  0.00  0.00    +0.000 C 
ENDBRANCH  11  15
BRANCH   6  16
ATOM     16  C   UNL     1       6.642   3.141  -3.563  0.00  0.00    +0.000 C 
BRANCH  16  19
ATOM     17  O   UNL     1       6.329   2.497  -5.857  0.00  0.00    +0.000 OA
ATOM     18  N   UNL     1       7.180   4.581  -5.542  0.00  0.00    +0.000 N 
ATOM     19  C   UNL     1       6.698   3.370  -5.066  0.00  0.00    +0.000 C 
ATOM     20  C   UNL     1       7.639   5.684  -4.712  0.00  0.00    +0.000 C 
ATOM     21  C   UNL     1       6.888   4.891  -6.930  0.00  0.00    +0.000 C 
ENDBRANCH  16  19
ENDBRANCH   6  16
BRANCH  10  22
ATOM     22  C   UNL     1       6.992  -1.201  -4.500  0.00  0.00    +0.000 C 
BRANCH  22  23
ATOM     23  C   UNL     1       8.317  -1.961  -4.514  0.00  0.00    +0.000 C 
BRANCH  23  25
ATOM     24  O   UNL     1      10.699   0.169  -6.266  0.00  0.00    +0.000 OA
ATOM     25  N   UNL     1       9.452  -1.146  -4.942  0.00  0.00    +0.000 N 
ATOM     26  C   UNL     1       9.685  -0.499  -6.118  0.00  0.00    +0.000 C 
ATOM     27  H   UNL     1      10.117  -0.877  -4.227  0.00  0.00    +0.000 HD
BRANCH  26  28
ATOM     28  O   UNL     1       8.720  -0.689  -7.047  0.00  0.00    +0.000 OA
BRANCH  28  29
ATOM     29  C   UNL     1       8.863  -0.118  -8.378  0.00  0.00    +0.000 C 
ATOM     30  C   UNL     1      10.090  -0.697  -9.095  0.00  0.00    +0.000 C 
ATOM     31  C   UNL     1       7.594  -0.552  -9.131  0.00  0.00    +0.000 C 
ATOM     32  C   UNL     1       8.909   1.414  -8.356  0.00  0.00    +0.000 C 
ENDBRANCH  28  29
ENDBRANCH  26  28
ENDBRANCH  23  25
BRANCH  23  33
ATOM     33  C   UNL     1       8.181  -3.264  -5.360  0.00  0.00    +0.000 C 
BRANCH  33  37
ATOM     34  F   UNL     1       8.295  -4.675  -2.901  0.00  0.00    +0.000 F 
ATOM     35  F   UNL     1       3.692  -5.183  -5.768  0.00  0.00    +0.000 F 
ATOM     36  F   UNL     1       3.906  -6.324  -3.288  0.00  0.00    +0.000 F 
ATOM     37  C   UNL     1       7.077  -4.184  -4.872  0.00  0.00    +0.000 A 
ATOM     38  C   UNL     1       7.175  -4.813  -3.624  0.00  0.00    +0.000 A 
ATOM     39  C   UNL     1       5.894  -4.348  -5.612  0.00  0.00    +0.000 A 
ATOM     40  C   UNL     1       4.833  -5.079  -5.076  0.00  0.00    +0.000 A 
ATOM     41  C   UNL     1       6.120  -5.545  -3.089  0.00  0.00    +0.000 A 
ATOM     42  C   UNL     1       4.944  -5.662  -3.817  0.00  0.00    +0.000 A 
ENDBRANCH  33  37
ENDBRANCH  23  33
ENDBRANCH  22  23
ENDBRANCH  10  22
TORSDOF 10
