REMARK  Name = 24777183
REMARK  12 active torsions:
REMARK  status: ('A' for Active; 'I' for Inactive)
REMARK    1  A    between atoms: O_8  and  C_27
REMARK    2  A    between atoms: O_8  and  C_28
REMARK    3  A    between atoms: N_13  and  C_22
REMARK    4  A    between atoms: C_15  and  C_21
REMARK    5  A    between atoms: C_19  and  C_20
REMARK    6  A    between atoms: C_20  and  C_22
REMARK    7  A    between atoms: C_22  and  C_24
REMARK    8  A    between atoms: C_23  and  C_25
REMARK    9  A    between atoms: C_24  and  C_26
REMARK   10  A    between atoms: C_28  and  C_31
REMARK   11  A    between atoms: C_28  and  C_32
REMARK   12  A    between atoms: C_28  and  C_33
REMARK                            x       y       z     vdW  Elec       q    Type
REMARK                         _______ _______ _______ _____ _____    ______ ____
ROOT
ATOM      1  C   UNL     1      -1.078   5.512   3.072  0.00  0.00    +0.000 C 
ENDROOT
BRANCH   1   3
ATOM      2  O   UNL     1       0.531   3.904   4.982  0.00  0.00    +0.000 OA
ATOM      3  N   UNL     1       0.274   5.717   3.605  0.00  0.00    +0.000 N 
ATOM      4  C   UNL     1       0.960   4.936   4.488  0.00  0.00    +0.000 C 
ATOM      5  H   UNL     1       0.830   6.464   3.206  0.00  0.00    +0.000 HD
BRANCH   4   6
ATOM      6  O   UNL     1       2.172   5.496   4.723  0.00  0.00    +0.000 OA
BRANCH   6   7
ATOM      7  C   UNL     1       3.128   4.946   5.678  0.00  0.00    +0.000 C 
ATOM      8  C   UNL     1       3.693   3.601   5.211  0.00  0.00    +0.000 C 
ATOM      9  C   UNL     1       4.290   5.960   5.727  0.00  0.00    +0.000 C 
ATOM     10  C   UNL     1       2.534   4.839   7.087  0.00  0.00    +0.000 C 
ENDBRANCH   6   7
ENDBRANCH   4   6
ENDBRANCH   1   3
BRANCH   1  11
ATOM     11  C   UNL     1      -1.252   4.233   2.239  0.00  0.00    +0.000 C 
BRANCH  11  21
ATOM     12  O   UNL     1       0.415   5.038   0.702  0.00  0.00    +0.000 OA
ATOM     13  N   UNL     1      -0.493   2.974   0.250  0.00  0.00    +0.000 N 
ATOM     14  N   UNL     1      -0.934   0.907  -1.606  0.00  0.00    +0.000 N 
ATOM     15  N   UNL     1      -2.083  -0.352  -0.241  0.00  0.00    +0.000 NA
ATOM     16  N   UNL     1      -1.949  -1.013  -1.435  0.00  0.00    +0.000 NA
ATOM     17  C   UNL     1      -0.167   2.058  -2.050  0.00  0.00    +0.000 C 
ATOM     18  C   UNL     1       0.465   2.761  -0.838  0.00  0.00    +0.000 C 
ATOM     19  C   UNL     1      -1.201   1.783   0.743  0.00  0.00    +0.000 C 
ATOM     20  C   UNL     1      -1.442   0.790  -0.337  0.00  0.00    +0.000 A 
ATOM     21  C   UNL     1      -0.354   4.132   1.021  0.00  0.00    +0.000 C 
ATOM     22  C   UNL     1      -1.022   3.024  -2.875  0.00  0.00    +0.000 C 
ATOM     23  C   UNL     1      -1.223  -0.267  -2.253  0.00  0.00    +0.000 A 
BRANCH  23  27
ATOM     24  F   UNL     1      -0.111   0.363  -4.254  0.00  0.00    +0.000 F 
ATOM     25  F   UNL     1      -1.781  -1.012  -4.430  0.00  0.00    +0.000 F 
ATOM     26  F   UNL     1       0.113  -1.687  -3.577  0.00  0.00    +0.000 F 
ATOM     27  C   UNL     1      -0.760  -0.647  -3.614  0.00  0.00    +0.000 C 
ENDBRANCH  23  27
ENDBRANCH  11  21
ENDBRANCH   1  11
BRANCH   1  28
ATOM     28  C   UNL     1      -2.161   5.560   4.188  0.00  0.00    +0.000 C 
BRANCH  28  32
ATOM     29  F   UNL     1      -3.187   7.714   2.622  0.00  0.00    +0.000 F 
ATOM     30  F   UNL     1      -6.691   3.722   3.805  0.00  0.00    +0.000 F 
ATOM     31  F   UNL     1      -7.496   5.852   2.283  0.00  0.00    +0.000 F 
ATOM     32  C   UNL     1      -3.591   5.634   3.688  0.00  0.00    +0.000 A 
ATOM     33  C   UNL     1      -4.037   6.721   2.917  0.00  0.00    +0.000 A 
ATOM     34  C   UNL     1      -4.515   4.620   3.987  0.00  0.00    +0.000 A 
ATOM     35  C   UNL     1      -5.829   4.704   3.512  0.00  0.00    +0.000 A 
ATOM     36  C   UNL     1      -5.344   6.802   2.436  0.00  0.00    +0.000 A 
ATOM     37  C   UNL     1      -6.236   5.783   2.732  0.00  0.00    +0.000 A 
ENDBRANCH  28  32
ENDBRANCH   1  28
TORSDOF 8
