REMARK  Name = 24776590
REMARK  10 active torsions:
REMARK  status: ('A' for Active; 'I' for Inactive)
REMARK    1  A    between atoms: N_13  and  C_28
REMARK    2  A    between atoms: N_13  and  C_29
REMARK    3  A    between atoms: N_14  and  C_23
REMARK    4  A    between atoms: C_15  and  C_19
REMARK    5  A    between atoms: C_19  and  C_24
REMARK    6  A    between atoms: C_20  and  C_21
REMARK    7  A    between atoms: C_21  and  C_23
REMARK    8  A    between atoms: C_22  and  C_26
REMARK    9  A    between atoms: C_23  and  C_25
REMARK   10  A    between atoms: C_25  and  C_27
REMARK                            x       y       z     vdW  Elec       q    Type
REMARK                         _______ _______ _______ _____ _____    ______ ____
ROOT
ATOM      1  O   UNL     1       2.695   7.555  -2.492  0.00  0.00    +0.000 OA
ATOM      2  N   UNL     1       1.417   7.233  -4.381  0.00  0.00    +0.000 N 
ATOM      3  N   UNL     1       0.899   7.204  -7.136  0.00  0.00    +0.000 N 
ATOM      4  N   UNL     1       2.280   8.785  -7.695  0.00  0.00    +0.000 NA
ATOM      5  N   UNL     1       1.689   8.283  -8.840  0.00  0.00    +0.000 NA
ATOM      6  C   UNL     1       2.252   8.162  -5.211  0.00  0.00    +0.000 C 
ATOM      7  C   UNL     1       0.059   6.980  -4.881  0.00  0.00    +0.000 C 
ATOM      8  C   UNL     1       0.090   6.382  -6.276  0.00  0.00    +0.000 C 
ATOM      9  C   UNL     1       1.842   8.085  -6.670  0.00  0.00    +0.000 A 
ATOM     10  C   UNL     1       1.741   7.009  -3.046  0.00  0.00    +0.000 C 
ATOM     11  C   UNL     1       0.891   7.285  -8.497  0.00  0.00    +0.000 A 
ENDROOT
BRANCH  11  15
ATOM     12  F   UNL     1      -0.567   5.422  -8.665  0.00  0.00    +0.000 F 
ATOM     13  F   UNL     1       0.887   5.687 -10.251  0.00  0.00    +0.000 F 
ATOM     14  F   UNL     1      -0.835   7.027 -10.100  0.00  0.00    +0.000 F 
ATOM     15  C   UNL     1       0.108   6.370  -9.375  0.00  0.00    +0.000 C 
ENDBRANCH  11  15
BRANCH   6  16
ATOM     16  C   UNL     1       3.786   8.022  -5.087  0.00  0.00    +0.000 C 
BRANCH  16  19
ATOM     17  O   UNL     1       3.592   5.769  -5.898  0.00  0.00    +0.000 OA
ATOM     18  N   UNL     1       5.685   6.429  -5.235  0.00  0.00    +0.000 N 
ATOM     19  C   UNL     1       4.326   6.652  -5.448  0.00  0.00    +0.000 C 
ATOM     20  C   UNL     1       6.649   7.418  -4.770  0.00  0.00    +0.000 C 
ATOM     21  C   UNL     1       6.211   5.114  -5.553  0.00  0.00    +0.000 C 
ENDBRANCH  16  19
ENDBRANCH   6  16
BRANCH  10  22
ATOM     22  C   UNL     1       0.918   5.997  -2.261  0.00  0.00    +0.000 C 
BRANCH  22  23
ATOM     23  C   UNL     1       1.005   4.578  -2.853  0.00  0.00    +0.000 C 
BRANCH  23  24
ATOM     24  N   UNL     1       0.119   3.695  -2.076  0.00  0.00    +0.000 NA
ATOM     25  H   UNL     1       0.674   3.156  -1.405  0.00  0.00    +0.000 HD
ATOM     26  H   UNL     1      -0.283   2.989  -2.694  0.00  0.00    +0.000 HD
ENDBRANCH  23  24
BRANCH  23  27
ATOM     27  C   UNL     1       2.472   4.099  -2.914  0.00  0.00    +0.000 C 
BRANCH  27  31
ATOM     28  F   UNL     1       2.351   1.707  -1.405  0.00  0.00    +0.000 F 
ATOM     29  F   UNL     1       3.420   1.186  -6.720  0.00  0.00    +0.000 F 
ATOM     30  F   UNL     1       3.361  -1.018  -5.105  0.00  0.00    +0.000 F 
ATOM     31  C   UNL     1       2.660   2.733  -3.520  0.00  0.00    +0.000 A 
ATOM     32  C   UNL     1       2.616   1.587  -2.713  0.00  0.00    +0.000 A 
ATOM     33  C   UNL     1       2.913   2.585  -4.887  0.00  0.00    +0.000 A 
ATOM     34  C   UNL     1       3.153   1.318  -5.419  0.00  0.00    +0.000 A 
ATOM     35  C   UNL     1       2.844   0.323  -3.241  0.00  0.00    +0.000 A 
ATOM     36  C   UNL     1       3.121   0.196  -4.594  0.00  0.00    +0.000 A 
ENDBRANCH  27  31
ENDBRANCH  23  27
ENDBRANCH  22  23
ENDBRANCH  10  22
TORSDOF 8
