REMARK  Name = 24777177
REMARK  10 active torsions:
REMARK  status: ('A' for Active; 'I' for Inactive)
REMARK    1  A    between atoms: N_18  and  C_28
REMARK    2  A    between atoms: C_19  and  C_23
REMARK    3  A    between atoms: C_23  and  C_27
REMARK    4  A    between atoms: C_24  and  C_25
REMARK    5  A    between atoms: C_25  and  C_28
REMARK    6  A    between atoms: C_26  and  C_32
REMARK    7  A    between atoms: C_28  and  C_29
REMARK    8  A    between atoms: C_29  and  C_35
REMARK    9  A    between atoms: C_33  and  C_38
REMARK   10  A    between atoms: C_34  and  C_37
REMARK                            x       y       z     vdW  Elec       q    Type
REMARK                         _______ _______ _______ _____ _____    ______ ____
ROOT
ATOM      1  O   UNL     1       3.642   7.421  -1.548  0.00  0.00    +0.000 OA
ATOM      2  N   UNL     1       2.112   7.717  -3.218  0.00  0.00    +0.000 N 
ATOM      3  N   UNL     1       1.713   7.951  -5.964  0.00  0.00    +0.000 N 
ATOM      4  N   UNL     1       3.521   9.094  -6.371  0.00  0.00    +0.000 NA
ATOM      5  N   UNL     1       2.915   8.796  -7.567  0.00  0.00    +0.000 NA
ATOM      6  C   UNL     1       3.035   8.666  -3.918  0.00  0.00    +0.000 C 
ATOM      7  C   UNL     1       0.743   7.639  -3.738  0.00  0.00    +0.000 C 
ATOM      8  C   UNL     1       2.787   8.592  -5.402  0.00  0.00    +0.000 A 
ATOM      9  C   UNL     1       0.730   7.217  -5.200  0.00  0.00    +0.000 C 
ATOM     10  C   UNL     1       2.529   7.166  -2.015  0.00  0.00    +0.000 C 
ATOM     11  C   UNL     1       1.823   8.092  -7.322  0.00  0.00    +0.000 A 
ENDROOT
BRANCH  11  15
ATOM     12  F   UNL     1      -0.071   6.737  -7.751  0.00  0.00    +0.000 F 
ATOM     13  F   UNL     1       1.472   6.802  -9.276  0.00  0.00    +0.000 F 
ATOM     14  F   UNL     1       0.175   8.531  -8.950  0.00  0.00    +0.000 F 
ATOM     15  C   UNL     1       0.865   7.547  -8.319  0.00  0.00    +0.000 C 
ENDBRANCH  11  15
BRANCH   6  16
ATOM     16  C   UNL     1       2.869  10.115  -3.379  0.00  0.00    +0.000 C 
BRANCH  16  17
ATOM     17  C   UNL     1       3.771  11.174  -3.986  0.00  0.00    +0.000 A 
ATOM     18  C   UNL     1       3.221  12.237  -4.721  0.00  0.00    +0.000 A 
ATOM     19  C   UNL     1       5.162  11.131  -3.810  0.00  0.00    +0.000 A 
ATOM     20  C   UNL     1       4.031  13.235  -5.287  0.00  0.00    +0.000 A 
ATOM     21  C   UNL     1       5.998  12.113  -4.373  0.00  0.00    +0.000 A 
ATOM     22  C   UNL     1       5.421  13.155  -5.118  0.00  0.00    +0.000 A 
BRANCH  21  26
ATOM     23  F   UNL     1       7.923  11.058  -3.384  0.00  0.00    +0.000 F 
ATOM     24  F   UNL     1       8.173  11.941  -5.357  0.00  0.00    +0.000 F 
ATOM     25  F   UNL     1       7.971  13.218  -3.611  0.00  0.00    +0.000 F 
ATOM     26  C   UNL     1       7.497  12.075  -4.182  0.00  0.00    +0.000 C 
ENDBRANCH  21  26
BRANCH  20  30
ATOM     27  F   UNL     1       2.066  14.376  -6.082  0.00  0.00    +0.000 F 
ATOM     28  F   UNL     1       3.781  15.595  -5.544  0.00  0.00    +0.000 F 
ATOM     29  F   UNL     1       3.822  14.410  -7.365  0.00  0.00    +0.000 F 
ATOM     30  C   UNL     1       3.428  14.385  -6.063  0.00  0.00    +0.000 C 
ENDBRANCH  20  30
ENDBRANCH  16  17
ENDBRANCH   6  16
BRANCH  10  31
ATOM     31  C   UNL     1       1.627   6.182  -1.277  0.00  0.00    +0.000 C 
BRANCH  31  32
ATOM     32  C   UNL     1       1.786   4.733  -1.781  0.00  0.00    +0.000 C 
BRANCH  32  33
ATOM     33  N   UNL     1       0.777   3.899  -1.102  0.00  0.00    +0.000 NA
ATOM     34  H   UNL     1       1.058   3.737  -0.133  0.00  0.00    +0.000 HD
ATOM     35  H   UNL     1       0.756   2.971  -1.529  0.00  0.00    +0.000 HD
ENDBRANCH  32  33
BRANCH  32  36
ATOM     36  C   UNL     1       3.226   4.221  -1.524  0.00  0.00    +0.000 C 
BRANCH  36  40
ATOM     37  F   UNL     1       3.049   3.109  -4.143  0.00  0.00    +0.000 F 
ATOM     38  F   UNL     1       4.707  -0.234  -0.175  0.00  0.00    +0.000 F 
ATOM     39  F   UNL     1       4.629  -1.108  -2.768  0.00  0.00    +0.000 F 
ATOM     40  C   UNL     1       3.506   2.770  -1.842  0.00  0.00    +0.000 A 
ATOM     41  C   UNL     1       3.446   2.291  -3.157  0.00  0.00    +0.000 A 
ATOM     42  C   UNL     1       3.925   1.891  -0.830  0.00  0.00    +0.000 A 
ATOM     43  C   UNL     1       4.292   0.585  -1.149  0.00  0.00    +0.000 A 
ATOM     44  C   UNL     1       3.812   0.986  -3.478  0.00  0.00    +0.000 A 
ATOM     45  C   UNL     1       4.245   0.140  -2.466  0.00  0.00    +0.000 A 
ENDBRANCH  36  40
ENDBRANCH  32  36
ENDBRANCH  31  32
ENDBRANCH  10  31
TORSDOF 10
