REMARK  Name = 9912652
REMARK  7 active torsions:
REMARK  status: ('A' for Active; 'I' for Inactive)
REMARK    1  A    between atoms: N_12  and  C_21
REMARK    2  A    between atoms: C_13  and  C_20
REMARK    3  A    between atoms: C_18  and  C_19
REMARK    4  A    between atoms: C_19  and  C_21
REMARK    5  A    between atoms: C_21  and  C_23
REMARK    6  A    between atoms: C_22  and  C_24
REMARK    7  A    between atoms: C_23  and  C_25
REMARK                            x       y       z     vdW  Elec       q    Type
REMARK                         _______ _______ _______ _____ _____    ______ ____
ROOT
ATOM      1  O   UNL     1       1.166   0.273  -5.536  0.00  0.00    +0.000 OA
ATOM      2  N   UNL     1       0.287   2.256  -4.767  0.00  0.00    +0.000 N 
ATOM      3  N   UNL     1      -2.265   1.930  -3.390  0.00  0.00    +0.000 N 
ATOM      4  N   UNL     1      -1.295   2.678  -1.569  0.00  0.00    +0.000 NA
ATOM      5  N   UNL     1      -2.438   2.032  -1.206  0.00  0.00    +0.000 NA
ATOM      6  C   UNL     1      -0.017   3.163  -3.649  0.00  0.00    +0.000 C 
ATOM      7  C   UNL     1      -0.447   2.437  -6.019  0.00  0.00    +0.000 C 
ATOM      8  C   UNL     1      -1.961   2.534  -5.838  0.00  0.00    +0.000 C 
ATOM      9  C   UNL     1      -2.530   1.593  -4.779  0.00  0.00    +0.000 C 
ATOM     10  C   UNL     1      -1.179   2.611  -2.877  0.00  0.00    +0.000 A 
ATOM     11  C   UNL     1       1.058   1.090  -4.621  0.00  0.00    +0.000 C 
ATOM     12  C   UNL     1      -0.251   4.633  -4.017  0.00  0.00    +0.000 C 
ATOM     13  C   UNL     1      -3.024   1.561  -2.293  0.00  0.00    +0.000 A 
ENDROOT
BRANCH  13  17
ATOM     14  F   UNL     1      -4.617   0.306  -3.546  0.00  0.00    +0.000 F 
ATOM     15  F   UNL     1      -5.346   1.494  -1.878  0.00  0.00    +0.000 F 
ATOM     16  F   UNL     1      -4.204  -0.332  -1.514  0.00  0.00    +0.000 F 
ATOM     17  C   UNL     1      -4.282   0.766  -2.310  0.00  0.00    +0.000 C 
ENDBRANCH  13  17
BRANCH  11  18
ATOM     18  C   UNL     1       1.729   0.845  -3.270  0.00  0.00    +0.000 C 
BRANCH  18  19
ATOM     19  C   UNL     1       2.609  -0.425  -3.211  0.00  0.00    +0.000 C 
BRANCH  19  20
ATOM     20  N   UNL     1       3.052  -0.635  -1.817  0.00  0.00    +0.000 NA
ATOM     21  H   UNL     1       2.277  -0.502  -1.168  0.00  0.00    +0.000 HD
ATOM     22  H   UNL     1       3.764   0.049  -1.563  0.00  0.00    +0.000 HD
ENDBRANCH  19  20
BRANCH  19  23
ATOM     23  C   UNL     1       3.843  -0.325  -4.145  0.00  0.00    +0.000 C 
BRANCH  23  27
ATOM     24  F   UNL     1       6.571  -0.148  -3.368  0.00  0.00    +0.000 F 
ATOM     25  F   UNL     1       4.805  -5.071  -4.897  0.00  0.00    +0.000 F 
ATOM     26  F   UNL     1       7.413  -4.709  -4.154  0.00  0.00    +0.000 F 
ATOM     27  C   UNL     1       4.779  -1.514  -4.117  0.00  0.00    +0.000 A 
ATOM     28  C   UNL     1       6.118  -1.354  -3.737  0.00  0.00    +0.000 A 
ATOM     29  C   UNL     1       4.342  -2.791  -4.508  0.00  0.00    +0.000 A 
ATOM     30  C   UNL     1       5.237  -3.861  -4.512  0.00  0.00    +0.000 A 
ATOM     31  C   UNL     1       7.013  -2.427  -3.741  0.00  0.00    +0.000 A 
ATOM     32  C   UNL     1       6.557  -3.674  -4.136  0.00  0.00    +0.000 A 
ENDBRANCH  23  27
ENDBRANCH  19  23
ENDBRANCH  18  19
ENDBRANCH  11  18
TORSDOF 6
