REMARK  Name = 24778063
REMARK  8 active torsions:
REMARK  status: ('A' for Active; 'I' for Inactive)
REMARK    1  A    between atoms: N_12  and  C_21
REMARK    2  A    between atoms: C_13  and  C_17
REMARK    3  A    between atoms: C_17  and  C_22
REMARK    4  A    between atoms: C_18  and  C_19
REMARK    5  A    between atoms: C_19  and  C_21
REMARK    6  A    between atoms: C_20  and  C_24
REMARK    7  A    between atoms: C_21  and  C_23
REMARK    8  A    between atoms: C_23  and  C_25
REMARK                            x       y       z     vdW  Elec       q    Type
REMARK                         _______ _______ _______ _____ _____    ______ ____
ROOT
ATOM      1  O   UNL     1       6.512   5.810   2.796  0.00  0.00    +0.000 OA
ATOM      2  N   UNL     1       4.243   5.867   2.395  0.00  0.00    +0.000 N 
ATOM      3  N   UNL     1       1.928   6.440   0.929  0.00  0.00    +0.000 N 
ATOM      4  N   UNL     1       2.784   8.031  -0.283  0.00  0.00    +0.000 NA
ATOM      5  N   UNL     1       1.508   7.778  -0.729  0.00  0.00    +0.000 NA
ATOM      6  C   UNL     1       4.340   7.052   1.484  0.00  0.00    +0.000 C 
ATOM      7  C   UNL     1       2.923   5.675   3.012  0.00  0.00    +0.000 C 
ATOM      8  C   UNL     1       3.047   7.200   0.704  0.00  0.00    +0.000 A 
ATOM      9  C   UNL     1       1.844   5.443   1.967  0.00  0.00    +0.000 C 
ATOM     10  C   UNL     1       5.393   5.347   2.999  0.00  0.00    +0.000 C 
ATOM     11  C   UNL     1       0.992   6.804  -0.001  0.00  0.00    +0.000 A 
ENDROOT
BRANCH  11  15
ATOM     12  F   UNL     1      -0.548   5.151   0.716  0.00  0.00    +0.000 F 
ATOM     13  F   UNL     1      -0.589   5.707  -1.381  0.00  0.00    +0.000 F 
ATOM     14  F   UNL     1      -1.348   7.085   0.137  0.00  0.00    +0.000 F 
ATOM     15  C   UNL     1      -0.359   6.197  -0.137  0.00  0.00    +0.000 C 
ENDBRANCH  11  15
BRANCH   6  16
ATOM     16  C   UNL     1       5.534   7.098   0.499  0.00  0.00    +0.000 C 
ATOM     17  C   UNL     1       5.631   5.899  -0.434  0.00  0.00    +0.000 C 
ENDBRANCH   6  16
BRANCH  10  18
ATOM     18  C   UNL     1       5.208   4.124   3.898  0.00  0.00    +0.000 C 
BRANCH  18  19
ATOM     19  C   UNL     1       6.530   3.514   4.399  0.00  0.00    +0.000 C 
BRANCH  19  20
ATOM     20  N   UNL     1       6.289   2.211   5.045  0.00  0.00    +0.000 NA
ATOM     21  H   UNL     1       5.400   1.803   4.764  0.00  0.00    +0.000 HD
ATOM     22  H   UNL     1       6.264   2.303   6.062  0.00  0.00    +0.000 HD
ENDBRANCH  19  20
BRANCH  19  23
ATOM     23  C   UNL     1       7.382   4.451   5.302  0.00  0.00    +0.000 C 
BRANCH  23  27
ATOM     24  F   UNL     1       6.373   3.113   7.646  0.00  0.00    +0.000 F 
ATOM     25  F   UNL     1       5.977   8.543   7.581  0.00  0.00    +0.000 F 
ATOM     26  F   UNL     1       5.100   7.114   9.748  0.00  0.00    +0.000 F 
ATOM     27  C   UNL     1       6.710   5.148   6.468  0.00  0.00    +0.000 A 
ATOM     28  C   UNL     1       6.262   4.443   7.597  0.00  0.00    +0.000 A 
ATOM     29  C   UNL     1       6.596   6.549   6.478  0.00  0.00    +0.000 A 
ATOM     30  C   UNL     1       6.059   7.205   7.585  0.00  0.00    +0.000 A 
ATOM     31  C   UNL     1       5.716   5.095   8.698  0.00  0.00    +0.000 A 
ATOM     32  C   UNL     1       5.616   6.479   8.686  0.00  0.00    +0.000 A 
ENDBRANCH  23  27
ENDBRANCH  19  23
ENDBRANCH  18  19
ENDBRANCH  10  18
TORSDOF 7
