REMARK  Name = 20628268
REMARK  7 active torsions:
REMARK  status: ('A' for Active; 'I' for Inactive)
REMARK    1  A    between atoms: N_8  and  C_15
REMARK    2  A    between atoms: C_13  and  C_14
REMARK    3  A    between atoms: C_13  and  C_15
REMARK    4  A    between atoms: C_15  and  C_17
REMARK    5  A    between atoms: C_16  and  C_18
REMARK    6  A    between atoms: C_17  and  C_19
REMARK    7  A    between atoms: C_18  and  C_20
REMARK                            x       y       z     vdW  Elec       q    Type
REMARK                         _______ _______ _______ _____ _____    ______ ____
ROOT
ATOM      1  C   UNL     1      -5.343  -1.884   1.067  0.00  0.00    +0.000 C 
ENDROOT
BRANCH   1  11
ATOM      2  O   UNL     1      -5.400  -4.025   2.104  0.00  0.00    +0.000 OA
ATOM      3  N   UNL     1      -4.371  -3.967   0.061  0.00  0.00    +0.000 N 
ATOM      4  N   UNL     1      -4.525  -5.109  -2.447  0.00  0.00    +0.000 N 
ATOM      5  N   UNL     1      -4.565  -7.184  -1.784  0.00  0.00    +0.000 NA
ATOM      6  N   UNL     1      -4.770  -7.152  -3.150  0.00  0.00    +0.000 NA
ATOM      7  C   UNL     1      -3.738  -3.274  -1.065  0.00  0.00    +0.000 C 
ATOM      8  C   UNL     1      -4.406  -3.675  -2.374  0.00  0.00    +0.000 C 
ATOM      9  C   UNL     1      -4.241  -5.438   0.031  0.00  0.00    +0.000 C 
ATOM     10  C   UNL     1      -4.449  -5.943  -1.361  0.00  0.00    +0.000 A 
ATOM     11  C   UNL     1      -5.030  -3.373   1.126  0.00  0.00    +0.000 C 
ATOM     12  C   UNL     1      -4.772  -5.893  -3.540  0.00  0.00    +0.000 A 
BRANCH  12  13
ATOM     13  C   UNL     1      -5.044  -5.383  -4.913  0.00  0.00    +0.000 C 
ATOM     14  C   UNL     1      -3.783  -5.289  -5.756  0.00  0.00    +0.000 C 
ENDBRANCH  12  13
ENDBRANCH   1  11
BRANCH   1  15
ATOM     15  C   UNL     1      -4.428  -1.001   1.936  0.00  0.00    +0.000 C 
BRANCH  15  16
ATOM     16  N   UNL     1      -4.936   0.383   1.837  0.00  0.00    +0.000 NA
ATOM     17  H   UNL     1      -5.881   0.429   2.222  0.00  0.00    +0.000 HD
ATOM     18  H   UNL     1      -4.372   0.995   2.429  0.00  0.00    +0.000 HD
ENDBRANCH  15  16
BRANCH  15  19
ATOM     19  C   UNL     1      -2.947  -1.059   1.490  0.00  0.00    +0.000 C 
BRANCH  19  22
ATOM     20  F   UNL     1      -0.500   0.547   5.430  0.00  0.00    +0.000 F 
ATOM     21  F   UNL     1       0.774   2.443   3.920  0.00  0.00    +0.000 F 
ATOM     22  C   UNL     1      -1.987  -0.104   2.174  0.00  0.00    +0.000 A 
ATOM     23  C   UNL     1      -1.701  -0.205   3.542  0.00  0.00    +0.000 A 
ATOM     24  C   UNL     1      -1.331   0.884   1.413  0.00  0.00    +0.000 A 
ATOM     25  C   UNL     1      -0.772   0.660   4.123  0.00  0.00    +0.000 A 
ATOM     26  C   UNL     1      -0.403   1.744   2.003  0.00  0.00    +0.000 A 
ATOM     27  C   UNL     1      -0.126   1.624   3.359  0.00  0.00    +0.000 A 
ENDBRANCH  19  22
ENDBRANCH  15  19
ENDBRANCH   1  15
TORSDOF 6
