REMARK  Name = 11260346
REMARK  11 active torsions:
REMARK  status: ('A' for Active; 'I' for Inactive)
REMARK    1  A    between atoms: O_7  and  C_25
REMARK    2  A    between atoms: O_7  and  C_26
REMARK    3  A    between atoms: N_11  and  C_17
REMARK    4  A    between atoms: C_17  and  C_18
REMARK    5  A    between atoms: C_17  and  C_21
REMARK    6  A    between atoms: C_18  and  C_20
REMARK    7  A    between atoms: C_21  and  C_23
REMARK    8  A    between atoms: C_22  and  C_24
REMARK    9  A    between atoms: C_25  and  C_29
REMARK   10  A    between atoms: C_25  and  C_30
REMARK   11  A    between atoms: C_25  and  C_31
REMARK                            x       y       z     vdW  Elec       q    Type
REMARK                         _______ _______ _______ _____ _____    ______ ____
ROOT
ATOM      1  C   UNL     1       5.748   1.229   6.385  0.00  0.00    +0.000 C 
ENDROOT
BRANCH   1   3
ATOM      2  O   UNL     1       4.290  -1.173   5.502  0.00  0.00    +0.000 OA
ATOM      3  N   UNL     1       4.348   0.810   6.652  0.00  0.00    +0.000 N 
ATOM      4  C   UNL     1       3.769  -0.362   6.255  0.00  0.00    +0.000 C 
ATOM      5  H   UNL     1       3.822   1.287   7.372  0.00  0.00    +0.000 HD
BRANCH   4   6
ATOM      6  O   UNL     1       2.524  -0.459   6.794  0.00  0.00    +0.000 OA
BRANCH   6   7
ATOM      7  C   UNL     1       1.591  -1.490   6.350  0.00  0.00    +0.000 C 
ATOM      8  C   UNL     1       2.094  -2.909   6.643  0.00  0.00    +0.000 C 
ATOM      9  C   UNL     1       0.286  -1.285   7.145  0.00  0.00    +0.000 C 
ATOM     10  C   UNL     1       1.265  -1.291   4.865  0.00  0.00    +0.000 C 
ENDBRANCH   6   7
ENDBRANCH   4   6
ENDBRANCH   1   3
BRANCH   1  11
ATOM     11  C   UNL     1       6.018   1.349   4.859  0.00  0.00    +0.000 C 
BRANCH  11  21
ATOM     12  O   UNL     1       8.329   1.871   5.329  0.00  0.00    +0.000 OA
ATOM     13  N   UNL     1       7.734   1.912   3.118  0.00  0.00    +0.000 N 
ATOM     14  N   UNL     1       8.167   3.122   0.631  0.00  0.00    +0.000 N 
ATOM     15  N   UNL     1       6.505   2.147  -0.391  0.00  0.00    +0.000 NA
ATOM     16  N   UNL     1       7.110   3.020  -1.266  0.00  0.00    +0.000 NA
ATOM     17  C   UNL     1       9.103   2.262   2.718  0.00  0.00    +0.000 C 
ATOM     18  C   UNL     1       9.092   3.413   1.706  0.00  0.00    +0.000 C 
ATOM     19  C   UNL     1       6.856   1.464   2.020  0.00  0.00    +0.000 C 
ATOM     20  C   UNL     1       7.134   2.226   0.761  0.00  0.00    +0.000 A 
ATOM     21  C   UNL     1       7.457   1.716   4.476  0.00  0.00    +0.000 C 
ATOM     22  C   UNL     1       8.104   3.629  -0.639  0.00  0.00    +0.000 A 
BRANCH  22  26
ATOM     23  F   UNL     1       9.821   5.217  -0.254  0.00  0.00    +0.000 F 
ATOM     24  F   UNL     1       8.310   5.718  -1.730  0.00  0.00    +0.000 F 
ATOM     25  F   UNL     1       9.813   4.195  -2.172  0.00  0.00    +0.000 F 
ATOM     26  C   UNL     1       9.000   4.678  -1.197  0.00  0.00    +0.000 C 
ENDBRANCH  22  26
ENDBRANCH  11  21
ENDBRANCH   1  11
BRANCH   1  27
ATOM     27  C   UNL     1       6.021   2.578   7.116  0.00  0.00    +0.000 C 
BRANCH  27  30
ATOM     28  F   UNL     1       3.622   4.341  10.994  0.00  0.00    +0.000 F 
ATOM     29  F   UNL     1       4.896   2.583  12.666  0.00  0.00    +0.000 F 
ATOM     30  C   UNL     1       5.739   2.579   8.609  0.00  0.00    +0.000 A 
ATOM     31  C   UNL     1       4.805   3.483   9.143  0.00  0.00    +0.000 A 
ATOM     32  C   UNL     1       6.416   1.711   9.482  0.00  0.00    +0.000 A 
ATOM     33  C   UNL     1       4.528   3.480  10.508  0.00  0.00    +0.000 A 
ATOM     34  C   UNL     1       6.129   1.715  10.851  0.00  0.00    +0.000 A 
ATOM     35  C   UNL     1       5.178   2.595  11.356  0.00  0.00    +0.000 A 
ENDBRANCH  27  30
ENDBRANCH   1  27
TORSDOF 8
