REMARK  Name = 10194630
REMARK  7 active torsions:
REMARK  status: ('A' for Active; 'I' for Inactive)
REMARK    1  A    between atoms: N_12  and  C_20
REMARK    2  A    between atoms: C_13  and  C_19
REMARK    3  A    between atoms: C_17  and  C_18
REMARK    4  A    between atoms: C_18  and  C_20
REMARK    5  A    between atoms: C_20  and  C_22
REMARK    6  A    between atoms: C_21  and  C_23
REMARK    7  A    between atoms: C_22  and  C_24
REMARK                            x       y       z     vdW  Elec       q    Type
REMARK                         _______ _______ _______ _____ _____    ______ ____
ROOT
ATOM      1  O   UNL     1       4.190   3.286  -6.235  0.00  0.00    +0.000 OA
ATOM      2  N   UNL     1       5.433   4.136  -4.474  0.00  0.00    +0.000 N 
ATOM      3  N   UNL     1       5.828   5.817  -2.278  0.00  0.00    +0.000 N 
ATOM      4  N   UNL     1       4.777   7.539  -3.088  0.00  0.00    +0.000 NA
ATOM      5  N   UNL     1       5.132   7.816  -1.788  0.00  0.00    +0.000 NA
ATOM      6  C   UNL     1       5.023   5.562  -4.680  0.00  0.00    +0.000 C 
ATOM      7  C   UNL     1       6.641   3.981  -3.650  0.00  0.00    +0.000 C 
ATOM      8  C   UNL     1       6.425   4.506  -2.241  0.00  0.00    +0.000 C 
ATOM      9  C   UNL     1       5.182   6.320  -3.378  0.00  0.00    +0.000 A 
ATOM     10  C   UNL     1       4.994   3.110  -5.321  0.00  0.00    +0.000 C 
ATOM     11  C   UNL     1       3.611   5.821  -5.231  0.00  0.00    +0.000 C 
ATOM     12  C   UNL     1       5.765   6.767  -1.292  0.00  0.00    +0.000 A 
ENDROOT
BRANCH  12  16
ATOM     13  F   UNL     1       6.877   5.394   0.290  0.00  0.00    +0.000 F 
ATOM     14  F   UNL     1       5.383   6.775   1.044  0.00  0.00    +0.000 F 
ATOM     15  F   UNL     1       7.309   7.524   0.331  0.00  0.00    +0.000 F 
ATOM     16  C   UNL     1       6.323   6.620   0.079  0.00  0.00    +0.000 C 
ENDBRANCH  12  16
BRANCH  10  17
ATOM     17  C   UNL     1       5.530   1.705  -5.032  0.00  0.00    +0.000 C 
BRANCH  17  18
ATOM     18  C   UNL     1       5.011   0.594  -5.966  0.00  0.00    +0.000 C 
BRANCH  18  19
ATOM     19  N   UNL     1       5.501  -0.688  -5.413  0.00  0.00    +0.000 NA
ATOM     20  H   UNL     1       5.532  -1.398  -6.145  0.00  0.00    +0.000 HD
ATOM     21  H   UNL     1       4.824  -1.035  -4.732  0.00  0.00    +0.000 HD
ENDBRANCH  18  19
BRANCH  18  22
ATOM     22  C   UNL     1       5.536   0.786  -7.411  0.00  0.00    +0.000 C 
BRANCH  22  26
ATOM     23  F   UNL     1       2.756   0.149  -7.871  0.00  0.00    +0.000 F 
ATOM     24  F   UNL     1       6.385  -2.062 -11.278  0.00  0.00    +0.000 F 
ATOM     25  F   UNL     1       3.703  -2.458 -11.663  0.00  0.00    +0.000 F 
ATOM     26  C   UNL     1       5.035  -0.178  -8.467  0.00  0.00    +0.000 A 
ATOM     27  C   UNL     1       3.667  -0.408  -8.679  0.00  0.00    +0.000 A 
ATOM     28  C   UNL     1       5.951  -0.764  -9.357  0.00  0.00    +0.000 A 
ATOM     29  C   UNL     1       5.496  -1.536 -10.424  0.00  0.00    +0.000 A 
ATOM     30  C   UNL     1       3.213  -1.185  -9.742  0.00  0.00    +0.000 A 
ATOM     31  C   UNL     1       4.136  -1.739 -10.618  0.00  0.00    +0.000 A 
ENDBRANCH  22  26
ENDBRANCH  18  22
ENDBRANCH  17  18
ENDBRANCH  10  17
TORSDOF 6
