REMARK  Name = 9982749
REMARK  7 active torsions:
REMARK  status: ('A' for Active; 'I' for Inactive)
REMARK    1  A    between atoms: N_12  and  C_20
REMARK    2  A    between atoms: C_13  and  C_18
REMARK    3  A    between atoms: C_17  and  C_19
REMARK    4  A    between atoms: C_19  and  C_20
REMARK    5  A    between atoms: C_20  and  C_21
REMARK    6  A    between atoms: C_21  and  C_25
REMARK    7  A    between atoms: C_22  and  C_26
REMARK                            x       y       z     vdW  Elec       q    Type
REMARK                         _______ _______ _______ _____ _____    ______ ____
ROOT
ATOM      1  O   UNL     1       0.874   7.063  -0.148  0.00  0.00    +0.000 OA
ATOM      2  N   UNL     1       2.515   5.892   0.987  0.00  0.00    +0.000 N 
ATOM      3  N   UNL     1       3.750   3.583   1.879  0.00  0.00    +0.000 N 
ATOM      4  N   UNL     1       1.993   2.317   2.022  0.00  0.00    +0.000 NA
ATOM      5  N   UNL     1       4.274   2.389   2.171  0.00  0.00    +0.000 NA
ATOM      6  C   UNL     1       1.584   4.794   1.422  0.00  0.00    +0.000 C 
ATOM      7  C   UNL     1       3.757   5.994   1.773  0.00  0.00    +0.000 C 
ATOM      8  C   UNL     1       4.588   4.734   1.668  0.00  0.00    +0.000 C 
ATOM      9  C   UNL     1       2.390   3.551   1.766  0.00  0.00    +0.000 A 
ATOM     10  C   UNL     1       2.032   6.979   0.250  0.00  0.00    +0.000 C 
ATOM     11  C   UNL     1       3.175   1.609   2.236  0.00  0.00    +0.000 A 
ENDROOT
BRANCH   6  13
ATOM     12  F   UNL     1      -2.647   4.057  -2.259  0.00  0.00    +0.000 F 
ATOM     13  C   UNL     1       0.448   4.476   0.454  0.00  0.00    +0.000 A 
ATOM     14  C   UNL     1       0.700   4.014  -0.850  0.00  0.00    +0.000 A 
ATOM     15  C   UNL     1      -0.886   4.740   0.835  0.00  0.00    +0.000 A 
ATOM     16  C   UNL     1      -0.350   3.866  -1.761  0.00  0.00    +0.000 A 
ATOM     17  C   UNL     1      -1.931   4.590  -0.078  0.00  0.00    +0.000 A 
ATOM     18  C   UNL     1      -1.650   4.166  -1.370  0.00  0.00    +0.000 A 
ENDBRANCH   6  13
BRANCH  11  22
ATOM     19  F   UNL     1       2.012  -0.476   2.482  0.00  0.00    +0.000 F 
ATOM     20  F   UNL     1       3.781  -0.164   3.718  0.00  0.00    +0.000 F 
ATOM     21  F   UNL     1       3.995  -0.534   1.577  0.00  0.00    +0.000 F 
ATOM     22  C   UNL     1       3.235   0.119   2.501  0.00  0.00    +0.000 C 
ENDBRANCH  11  22
BRANCH  10  23
ATOM     23  C   UNL     1       3.024   8.085  -0.087  0.00  0.00    +0.000 C 
BRANCH  23  24
ATOM     24  C   UNL     1       2.428   9.219  -0.947  0.00  0.00    +0.000 C 
BRANCH  24  25
ATOM     25  N   UNL     1       3.534  10.128  -1.322  0.00  0.00    +0.000 NA
ATOM     26  H   UNL     1       4.114  10.346  -0.514  0.00  0.00    +0.000 HD
ATOM     27  H   UNL     1       3.148  11.022  -1.634  0.00  0.00    +0.000 HD
ENDBRANCH  24  25
BRANCH  24  28
ATOM     28  C   UNL     1       1.309   9.984  -0.194  0.00  0.00    +0.000 C 
BRANCH  28  31
ATOM     29  F   UNL     1      -0.277  14.577  -0.620  0.00  0.00    +0.000 F 
ATOM     30  F   UNL     1      -1.566  13.981  -2.963  0.00  0.00    +0.000 F 
ATOM     31  C   UNL     1       0.604  11.066  -0.983  0.00  0.00    +0.000 A 
ATOM     32  C   UNL     1       0.526  12.367  -0.466  0.00  0.00    +0.000 A 
ATOM     33  C   UNL     1      -0.056  10.770  -2.191  0.00  0.00    +0.000 A 
ATOM     34  C   UNL     1      -0.200  13.344  -1.140  0.00  0.00    +0.000 A 
ATOM     35  C   UNL     1      -0.778  11.761  -2.863  0.00  0.00    +0.000 A 
ATOM     36  C   UNL     1      -0.851  13.042  -2.329  0.00  0.00    +0.000 A 
ENDBRANCH  28  31
ENDBRANCH  24  28
ENDBRANCH  23  24
ENDBRANCH  10  23
TORSDOF 7
