REMARK  Name = 11306691
REMARK  6 active torsions:
REMARK  status: ('A' for Active; 'I' for Inactive)
REMARK    1  A    between atoms: N_11  and  C_18
REMARK    2  A    between atoms: C_17  and  C_18
REMARK    3  A    between atoms: C_17  and  C_19
REMARK    4  A    between atoms: C_18  and  C_20
REMARK    5  A    between atoms: C_20  and  C_22
REMARK    6  A    between atoms: C_21  and  C_23
REMARK                            x       y       z     vdW  Elec       q    Type
REMARK                         _______ _______ _______ _____ _____    ______ ____
ROOT
ATOM      1  C   UNL     1       4.916   4.698   3.375  0.00  0.00    +0.000 C 
ENDROOT
BRANCH   1  11
ATOM      2  O   UNL     1       4.714   6.969   2.602  0.00  0.00    +0.000 OA
ATOM      3  N   UNL     1       5.507   5.454   1.083  0.00  0.00    +0.000 N 
ATOM      4  N   UNL     1       7.349   5.084  -0.977  0.00  0.00    +0.000 N 
ATOM      5  N   UNL     1       6.970   6.988  -1.969  0.00  0.00    +0.000 NA
ATOM      6  N   UNL     1       7.994   6.349  -2.624  0.00  0.00    +0.000 NA
ATOM      7  C   UNL     1       5.807   4.089   0.641  0.00  0.00    +0.000 C 
ATOM      8  C   UNL     1       7.191   4.025  -0.006  0.00  0.00    +0.000 C 
ATOM      9  C   UNL     1       5.514   6.487   0.034  0.00  0.00    +0.000 C 
ATOM     10  C   UNL     1       6.591   6.227  -0.966  0.00  0.00    +0.000 A 
ATOM     11  C   UNL     1       5.029   5.810   2.340  0.00  0.00    +0.000 C 
ATOM     12  C   UNL     1       8.233   5.199  -2.018  0.00  0.00    +0.000 A 
BRANCH  12  16
ATOM     13  F   UNL     1       9.345   3.176  -1.486  0.00  0.00    +0.000 F 
ATOM     14  F   UNL     1      10.512   4.731  -2.452  0.00  0.00    +0.000 F 
ATOM     15  F   UNL     1       9.013   3.618  -3.587  0.00  0.00    +0.000 F 
ATOM     16  C   UNL     1       9.267   4.196  -2.385  0.00  0.00    +0.000 C 
ENDBRANCH  12  16
ENDBRANCH   1  11
BRANCH   1  17
ATOM     17  C   UNL     1       4.520   5.177   4.783  0.00  0.00    +0.000 C 
BRANCH  17  18
ATOM     18  N   UNL     1       4.687   4.086   5.763  0.00  0.00    +0.000 NA
ATOM     19  H   UNL     1       5.220   3.307   5.382  0.00  0.00    +0.000 HD
ATOM     20  H   UNL     1       3.781   3.707   6.045  0.00  0.00    +0.000 HD
ENDBRANCH  17  18
BRANCH  17  21
ATOM     21  C   UNL     1       3.123   5.844   4.906  0.00  0.00    +0.000 C 
BRANCH  21  25
ATOM     22  F   UNL     1       2.013   3.394   5.934  0.00  0.00    +0.000 F 
ATOM     23  F   UNL     1      -0.609   5.704   1.759  0.00  0.00    +0.000 F 
ATOM     24  F   UNL     1      -1.568   3.404   2.893  0.00  0.00    +0.000 F 
ATOM     25  C   UNL     1       1.919   5.136   4.323  0.00  0.00    +0.000 A 
ATOM     26  C   UNL     1       1.401   3.962   4.886  0.00  0.00    +0.000 A 
ATOM     27  C   UNL     1       1.225   5.713   3.246  0.00  0.00    +0.000 A 
ATOM     28  C   UNL     1       0.054   5.124   2.769  0.00  0.00    +0.000 A 
ATOM     29  C   UNL     1       0.236   3.367   4.406  0.00  0.00    +0.000 A 
ATOM     30  C   UNL     1      -0.435   3.959   3.346  0.00  0.00    +0.000 A 
ENDBRANCH  21  25
ENDBRANCH  17  21
ENDBRANCH   1  17
TORSDOF 6
