REMARK  Name = 24777690
REMARK  12 active torsions:
REMARK  status: ('A' for Active; 'I' for Inactive)
REMARK    1  A    between atoms: O_8  and  C_27
REMARK    2  A    between atoms: O_8  and  C_28
REMARK    3  A    between atoms: N_13  and  C_21
REMARK    4  A    between atoms: C_15  and  C_22
REMARK    5  A    between atoms: C_19  and  C_20
REMARK    6  A    between atoms: C_20  and  C_21
REMARK    7  A    between atoms: C_21  and  C_24
REMARK    8  A    between atoms: C_23  and  C_25
REMARK    9  A    between atoms: C_24  and  C_26
REMARK   10  A    between atoms: C_28  and  C_31
REMARK   11  A    between atoms: C_28  and  C_32
REMARK   12  A    between atoms: C_28  and  C_33
REMARK                            x       y       z     vdW  Elec       q    Type
REMARK                         _______ _______ _______ _____ _____    ______ ____
ROOT
ATOM      1  C   UNL     1       5.887   3.517  -5.142  0.00  0.00    +0.000 C 
ENDROOT
BRANCH   1   3
ATOM      2  O   UNL     1       6.587   3.485  -2.322  0.00  0.00    +0.000 OA
ATOM      3  N   UNL     1       6.633   2.489  -4.384  0.00  0.00    +0.000 N 
ATOM      4  C   UNL     1       6.984   2.601  -3.066  0.00  0.00    +0.000 C 
ATOM      5  H   UNL     1       7.038   1.708  -4.884  0.00  0.00    +0.000 HD
BRANCH   4   6
ATOM      6  O   UNL     1       7.840   1.607  -2.724  0.00  0.00    +0.000 OA
BRANCH   6   7
ATOM      7  C   UNL     1       8.426   1.569  -1.389  0.00  0.00    +0.000 C 
ATOM      8  C   UNL     1       7.358   1.315  -0.319  0.00  0.00    +0.000 C 
ATOM      9  C   UNL     1       9.405   0.382  -1.395  0.00  0.00    +0.000 C 
ATOM     10  C   UNL     1       9.233   2.840  -1.085  0.00  0.00    +0.000 C 
ENDBRANCH   6   7
ENDBRANCH   4   6
ENDBRANCH   1   3
BRANCH   1  11
ATOM     11  C   UNL     1       4.469   3.685  -4.556  0.00  0.00    +0.000 C 
BRANCH  11  21
ATOM     12  O   UNL     1       3.798   5.042  -6.436  0.00  0.00    +0.000 OA
ATOM     13  N   UNL     1       2.228   4.739  -4.782  0.00  0.00    +0.000 N 
ATOM     14  N   UNL     1      -0.457   4.259  -4.163  0.00  0.00    +0.000 N 
ATOM     15  N   UNL     1      -1.289   5.551  -5.708  0.00  0.00    +0.000 NA
ATOM     16  N   UNL     1      -2.323   4.894  -5.076  0.00  0.00    +0.000 NA
ATOM     17  C   UNL     1       1.242   5.605  -5.481  0.00  0.00    +0.000 C 
ATOM     18  C   UNL     1       1.878   4.338  -3.415  0.00  0.00    +0.000 C 
ATOM     19  C   UNL     1       0.549   3.595  -3.370  0.00  0.00    +0.000 C 
ATOM     20  C   UNL     1      -0.160   5.156  -5.156  0.00  0.00    +0.000 A 
ATOM     21  C   UNL     1       3.495   4.557  -5.348  0.00  0.00    +0.000 C 
ATOM     22  C   UNL     1       1.421   7.076  -5.091  0.00  0.00    +0.000 C 
ATOM     23  C   UNL     1      -1.816   4.107  -4.145  0.00  0.00    +0.000 A 
BRANCH  23  27
ATOM     24  F   UNL     1      -1.744   2.517  -2.385  0.00  0.00    +0.000 F 
ATOM     25  F   UNL     1      -3.276   2.261  -3.899  0.00  0.00    +0.000 F 
ATOM     26  F   UNL     1      -3.435   3.878  -2.436  0.00  0.00    +0.000 F 
ATOM     27  C   UNL     1      -2.565   3.202  -3.229  0.00  0.00    +0.000 C 
ENDBRANCH  23  27
ENDBRANCH  11  21
ENDBRANCH   1  11
BRANCH   1  28
ATOM     28  C   UNL     1       6.654   4.864  -5.175  0.00  0.00    +0.000 C 
BRANCH  28  32
ATOM     29  F   UNL     1       7.771   3.002  -7.178  0.00  0.00    +0.000 F 
ATOM     30  F   UNL     1      10.786   7.330  -5.813  0.00  0.00    +0.000 F 
ATOM     31  F   UNL     1      11.637   5.604  -7.761  0.00  0.00    +0.000 F 
ATOM     32  C   UNL     1       8.028   4.939  -5.815  0.00  0.00    +0.000 A 
ATOM     33  C   UNL     1       8.496   4.064  -6.805  0.00  0.00    +0.000 A 
ATOM     34  C   UNL     1       8.838   6.043  -5.480  0.00  0.00    +0.000 A 
ATOM     35  C   UNL     1      10.052   6.256  -6.130  0.00  0.00    +0.000 A 
ATOM     36  C   UNL     1       9.715   4.274  -7.451  0.00  0.00    +0.000 A 
ATOM     37  C   UNL     1      10.483   5.381  -7.116  0.00  0.00    +0.000 A 
ENDBRANCH  28  32
ENDBRANCH   1  28
TORSDOF 8
