REMARK  Name = 11306468
REMARK  7 active torsions:
REMARK  status: ('A' for Active; 'I' for Inactive)
REMARK    1  A    between atoms: N_14  and  C_21
REMARK    2  A    between atoms: C_19  and  C_20
REMARK    3  A    between atoms: C_19  and  C_21
REMARK    4  A    between atoms: C_21  and  C_23
REMARK    5  A    between atoms: C_22  and  C_24
REMARK    6  A    between atoms: C_23  and  C_25
REMARK    7  A    between atoms: C_24  and  C_26
REMARK                            x       y       z     vdW  Elec       q    Type
REMARK                         _______ _______ _______ _____ _____    ______ ____
ROOT
ATOM      1  O   UNL     1       9.039  -0.951  -3.701  0.00  0.00    +0.000 OA
ATOM      2  N   UNL     1       9.678   0.575  -2.112  0.00  0.00    +0.000 N 
ATOM      3  N   UNL     1      11.436   2.610  -1.369  0.00  0.00    +0.000 N 
ATOM      4  N   UNL     1      10.691   2.811   0.670  0.00  0.00    +0.000 NA
ATOM      5  N   UNL     1      11.732   3.685   0.496  0.00  0.00    +0.000 NA
ATOM      6  C   UNL     1      10.176   1.499  -3.138  0.00  0.00    +0.000 C 
ATOM      7  C   UNL     1      11.518   2.101  -2.720  0.00  0.00    +0.000 C 
ATOM      8  C   UNL     1       9.482   1.142  -0.769  0.00  0.00    +0.000 C 
ATOM      9  C   UNL     1      10.511   2.168  -0.458  0.00  0.00    +0.000 A 
ATOM     10  C   UNL     1       9.096  -0.628  -2.517  0.00  0.00    +0.000 C 
ATOM     11  C   UNL     1      12.183   3.565  -0.738  0.00  0.00    +0.000 A 
ENDROOT
BRANCH  11  14
ATOM     12  F   UNL     1      14.177   4.745  -0.399  0.00  0.00    +0.000 F 
ATOM     13  F   UNL     1      14.026   3.541  -2.192  0.00  0.00    +0.000 F 
ATOM     14  C   UNL     1      13.290   4.345  -1.360  0.00  0.00    +0.000 C 
BRANCH  14  18
ATOM     15  F   UNL     1      13.448   6.705  -1.841  0.00  0.00    +0.000 F 
ATOM     16  F   UNL     1      12.907   5.378  -3.480  0.00  0.00    +0.000 F 
ATOM     17  F   UNL     1      11.455   5.823  -1.935  0.00  0.00    +0.000 F 
ATOM     18  C   UNL     1      12.772   5.569  -2.138  0.00  0.00    +0.000 C 
ENDBRANCH  14  18
ENDBRANCH  11  14
BRANCH  10  19
ATOM     19  C   UNL     1       8.568  -1.529  -1.410  0.00  0.00    +0.000 C 
BRANCH  19  20
ATOM     20  C   UNL     1       7.938  -2.854  -1.883  0.00  0.00    +0.000 C 
BRANCH  20  21
ATOM     21  N   UNL     1       7.326  -3.516  -0.711  0.00  0.00    +0.000 NA
ATOM     22  H   UNL     1       6.730  -2.868  -0.197  0.00  0.00    +0.000 HD
ATOM     23  H   UNL     1       8.049  -3.828  -0.062  0.00  0.00    +0.000 HD
ENDBRANCH  20  21
BRANCH  20  24
ATOM     24  C   UNL     1       8.967  -3.812  -2.543  0.00  0.00    +0.000 C 
BRANCH  24  28
ATOM     25  F   UNL     1      10.686  -6.022  -2.698  0.00  0.00    +0.000 F 
ATOM     26  F   UNL     1       5.491  -6.991  -4.005  0.00  0.00    +0.000 F 
ATOM     27  F   UNL     1       7.322  -9.026  -4.031  0.00  0.00    +0.000 F 
ATOM     28  C   UNL     1       8.477  -5.190  -2.951  0.00  0.00    +0.000 A 
ATOM     29  C   UNL     1       9.400  -6.248  -3.005  0.00  0.00    +0.000 A 
ATOM     30  C   UNL     1       7.149  -5.457  -3.320  0.00  0.00    +0.000 A 
ATOM     31  C   UNL     1       6.769  -6.751  -3.678  0.00  0.00    +0.000 A 
ATOM     32  C   UNL     1       9.022  -7.538  -3.366  0.00  0.00    +0.000 A 
ATOM     33  C   UNL     1       7.698  -7.784  -3.694  0.00  0.00    +0.000 A 
ENDBRANCH  24  28
ENDBRANCH  20  24
ENDBRANCH  19  20
ENDBRANCH  10  19
TORSDOF 7
