REMARK  Name = 23647136
REMARK  6 active torsions:
REMARK  status: ('A' for Active; 'I' for Inactive)
REMARK    1  A    between atoms: N_10  and  C_17
REMARK    2  A    between atoms: C_16  and  C_17
REMARK    3  A    between atoms: C_16  and  C_18
REMARK    4  A    between atoms: C_17  and  C_19
REMARK    5  A    between atoms: C_19  and  C_21
REMARK    6  A    between atoms: C_20  and  C_22
REMARK                            x       y       z     vdW  Elec       q    Type
REMARK                         _______ _______ _______ _____ _____    ______ ____
ROOT
ATOM      1  O   UNL     1      -4.611   3.751   2.019  0.00  0.00    +0.000 OA
ATOM      2  N   UNL     1      -4.673   4.342  -0.186  0.00  0.00    +0.000 N 
ATOM      3  N   UNL     1      -5.784   3.207  -2.451  0.00  0.00    +0.000 N 
ATOM      4  N   UNL     1      -4.188   3.842  -3.801  0.00  0.00    +0.000 NA
ATOM      5  N   UNL     1      -5.018   2.984  -4.478  0.00  0.00    +0.000 NA
ATOM      6  C   UNL     1      -6.136   4.211  -0.241  0.00  0.00    +0.000 C 
ATOM      7  C   UNL     1      -6.548   3.112  -1.223  0.00  0.00    +0.000 C 
ATOM      8  C   UNL     1      -4.045   4.733  -1.449  0.00  0.00    +0.000 C 
ATOM      9  C   UNL     1      -4.638   3.954  -2.572  0.00  0.00    +0.000 A 
ATOM     10  C   UNL     1      -4.017   4.167   1.022  0.00  0.00    +0.000 C 
ATOM     11  C   UNL     1      -5.970   2.574  -3.653  0.00  0.00    +0.000 A 
ENDROOT
BRANCH  11  15
ATOM     12  F   UNL     1      -7.879   1.389  -2.901  0.00  0.00    +0.000 F 
ATOM     13  F   UNL     1      -7.817   1.969  -4.996  0.00  0.00    +0.000 F 
ATOM     14  F   UNL     1      -6.530   0.363  -4.261  0.00  0.00    +0.000 F 
ATOM     15  C   UNL     1      -7.037   1.585  -3.952  0.00  0.00    +0.000 C 
ENDBRANCH  11  15
BRANCH  10  16
ATOM     16  C   UNL     1      -2.545   4.538   1.129  0.00  0.00    +0.000 C 
BRANCH  16  17
ATOM     17  C   UNL     1      -1.580   3.343   1.248  0.00  0.00    +0.000 C 
BRANCH  17  18
ATOM     18  N   UNL     1      -0.220   3.908   1.369  0.00  0.00    +0.000 NA
ATOM     19  H   UNL     1      -0.165   4.492   2.204  0.00  0.00    +0.000 HD
ATOM     20  H   UNL     1       0.451   3.153   1.518  0.00  0.00    +0.000 HD
ENDBRANCH  17  18
BRANCH  17  21
ATOM     21  C   UNL     1      -1.661   2.375   0.043  0.00  0.00    +0.000 C 
BRANCH  21  24
ATOM     22 CL   UNL     1       2.469   0.283  -2.390  0.00  0.00    +0.000 Cl
ATOM     23  F   UNL     1      -1.484   0.201   1.906  0.00  0.00    +0.000 F 
ATOM     24  C   UNL     1      -0.610   1.282  -0.013  0.00  0.00    +0.000 A 
ATOM     25  C   UNL     1       0.354   1.284  -1.035  0.00  0.00    +0.000 A 
ATOM     26  C   UNL     1      -0.582   0.238   0.917  0.00  0.00    +0.000 A 
ATOM     27  C   UNL     1       1.306   0.265  -1.121  0.00  0.00    +0.000 A 
ATOM     28  C   UNL     1       0.368  -0.782   0.835  0.00  0.00    +0.000 A 
ATOM     29  C   UNL     1       1.315  -0.770  -0.192  0.00  0.00    +0.000 A 
ENDBRANCH  21  24
ENDBRANCH  17  21
ENDBRANCH  16  17
ENDBRANCH  10  16
TORSDOF 6
