REMARK  Name = 10127057
REMARK  7 active torsions:
REMARK  status: ('A' for Active; 'I' for Inactive)
REMARK    1  A    between atoms: N_12  and  C_20
REMARK    2  A    between atoms: C_13  and  C_18
REMARK    3  A    between atoms: C_17  and  C_19
REMARK    4  A    between atoms: C_19  and  C_20
REMARK    5  A    between atoms: C_20  and  C_22
REMARK    6  A    between atoms: C_21  and  C_23
REMARK    7  A    between atoms: C_22  and  C_24
REMARK                            x       y       z     vdW  Elec       q    Type
REMARK                         _______ _______ _______ _____ _____    ______ ____
ROOT
ATOM      1  O   UNL     1       3.995   6.598  -0.930  0.00  0.00    +0.000 OA
ATOM      2  N   UNL     1       3.379   7.971  -2.678  0.00  0.00    +0.000 N 
ATOM      3  N   UNL     1       3.275  10.597  -3.647  0.00  0.00    +0.000 N 
ATOM      4  N   UNL     1       1.771  10.245  -5.176  0.00  0.00    +0.000 NA
ATOM      5  N   UNL     1       2.082  11.590  -5.165  0.00  0.00    +0.000 NA
ATOM      6  C   UNL     1       4.617   8.797  -2.668  0.00  0.00    +0.000 C 
ATOM      7  C   UNL     1       4.228  10.282  -2.616  0.00  0.00    +0.000 C 
ATOM      8  C   UNL     1       2.504   8.209  -3.858  0.00  0.00    +0.000 C 
ATOM      9  C   UNL     1       2.479   9.655  -4.240  0.00  0.00    +0.000 A 
ATOM     10  C   UNL     1       3.182   6.899  -1.802  0.00  0.00    +0.000 C 
ATOM     11  C   UNL     1       5.667   8.568  -1.581  0.00  0.00    +0.000 C 
ATOM     12  C   UNL     1       2.983  11.806  -4.218  0.00  0.00    +0.000 A 
ENDROOT
BRANCH  12  16
ATOM     13  F   UNL     1       4.313  12.999  -2.661  0.00  0.00    +0.000 F 
ATOM     14  F   UNL     1       2.681  14.075  -3.604  0.00  0.00    +0.000 F 
ATOM     15  F   UNL     1       4.470  13.563  -4.753  0.00  0.00    +0.000 F 
ATOM     16  C   UNL     1       3.597  13.101  -3.820  0.00  0.00    +0.000 C 
ENDBRANCH  12  16
BRANCH  10  17
ATOM     17  C   UNL     1       1.894   6.090  -1.940  0.00  0.00    +0.000 C 
BRANCH  17  18
ATOM     18  C   UNL     1       1.754   4.908  -0.947  0.00  0.00    +0.000 C 
BRANCH  18  19
ATOM     19  N   UNL     1       0.544   4.160  -1.356  0.00  0.00    +0.000 NA
ATOM     20  H   UNL     1       0.071   3.765  -0.543  0.00  0.00    +0.000 HD
ATOM     21  H   UNL     1       0.818   3.357  -1.922  0.00  0.00    +0.000 HD
ENDBRANCH  18  19
BRANCH  18  22
ATOM     22  C   UNL     1       1.657   5.327   0.550  0.00  0.00    +0.000 C 
BRANCH  22  26
ATOM     23  F   UNL     1      -0.593   5.029   2.276  0.00  0.00    +0.000 F 
ATOM     24  F   UNL     1       3.113   1.043   2.460  0.00  0.00    +0.000 F 
ATOM     25  F   UNL     1       0.846   0.892   3.988  0.00  0.00    +0.000 F 
ATOM     26  C   UNL     1       1.475   4.155   1.503  0.00  0.00    +0.000 A 
ATOM     27  C   UNL     1       0.334   4.062   2.317  0.00  0.00    +0.000 A 
ATOM     28  C   UNL     1       2.429   3.125   1.583  0.00  0.00    +0.000 A 
ATOM     29  C   UNL     1       2.209   2.030   2.421  0.00  0.00    +0.000 A 
ATOM     30  C   UNL     1       0.118   2.976   3.158  0.00  0.00    +0.000 A 
ATOM     31  C   UNL     1       1.061   1.954   3.199  0.00  0.00    +0.000 A 
ENDBRANCH  22  26
ENDBRANCH  18  22
ENDBRANCH  17  18
ENDBRANCH  10  17
TORSDOF 6
