REMARK  Name = 20628252
REMARK  5 active torsions:
REMARK  status: ('A' for Active; 'I' for Inactive)
REMARK    1  A    between atoms: N_5  and  C_11
REMARK    2  A    between atoms: C_11  and  C_12
REMARK    3  A    between atoms: C_11  and  C_15
REMARK    4  A    between atoms: C_12  and  C_14
REMARK    5  A    between atoms: C_15  and  C_17
REMARK                            x       y       z     vdW  Elec       q    Type
REMARK                         _______ _______ _______ _____ _____    ______ ____
ROOT
ATOM      1  C   UNL     1       0.440  -3.283   1.321  0.00  0.00    +0.000 C 
ENDROOT
BRANCH   1   2
ATOM      2  N   UNL     1      -0.930  -3.846   1.380  0.00  0.00    +0.000 NA
ATOM      3  H   UNL     1      -1.049  -4.388   2.235  0.00  0.00    +0.000 HD
ATOM      4  H   UNL     1      -1.604  -3.080   1.441  0.00  0.00    +0.000 HD
ENDBRANCH   1   2
BRANCH   1   5
ATOM      5  C   UNL     1       1.403  -4.489   1.283  0.00  0.00    +0.000 C 
BRANCH   5  15
ATOM      6  O   UNL     1       3.341  -3.051   1.312  0.00  0.00    +0.000 OA
ATOM      7  N   UNL     1       3.741  -5.304   1.490  0.00  0.00    +0.000 N 
ATOM      8  N   UNL     1       5.402  -7.283   0.505  0.00  0.00    +0.000 N 
ATOM      9  N   UNL     1       4.019  -8.937   0.821  0.00  0.00    +0.000 NA
ATOM     10  N   UNL     1       5.127  -9.410   0.147  0.00  0.00    +0.000 NA
ATOM     11  C   UNL     1       5.195  -5.112   1.602  0.00  0.00    +0.000 C 
ATOM     12  C   UNL     1       3.276  -6.686   1.694  0.00  0.00    +0.000 C 
ATOM     13  C   UNL     1       5.929  -5.938   0.542  0.00  0.00    +0.000 C 
ATOM     14  C   UNL     1       4.188  -7.649   1.019  0.00  0.00    +0.000 A 
ATOM     15  C   UNL     1       2.898  -4.195   1.372  0.00  0.00    +0.000 C 
ATOM     16  C   UNL     1       5.945  -8.396  -0.041  0.00  0.00    +0.000 A 
ENDBRANCH   5  15
ENDBRANCH   1   5
BRANCH   1  17
ATOM     17  C   UNL     1       0.572  -2.353   0.088  0.00  0.00    +0.000 C 
BRANCH  17  19
ATOM     18  F   UNL     1       0.307  -0.209   1.983  0.00  0.00    +0.000 F 
ATOM     19  C   UNL     1      -0.453  -1.238  -0.014  0.00  0.00    +0.000 A 
ATOM     20  C   UNL     1      -0.525  -0.213   0.934  0.00  0.00    +0.000 A 
ATOM     21  C   UNL     1      -1.346  -1.198  -1.098  0.00  0.00    +0.000 A 
ATOM     22  C   UNL     1      -1.450   0.827   0.814  0.00  0.00    +0.000 A 
ATOM     23  C   UNL     1      -2.274  -0.159  -1.224  0.00  0.00    +0.000 A 
ATOM     24  C   UNL     1      -2.326   0.855  -0.270  0.00  0.00    +0.000 A 
ENDBRANCH  17  19
ENDBRANCH   1  17
TORSDOF 5
