REMARK  Name = 10408855
REMARK  7 active torsions:
REMARK  status: ('A' for Active; 'I' for Inactive)
REMARK    1  A    between atoms: N_11  and  C_18
REMARK    2  A    between atoms: C_12  and  C_19
REMARK    3  A    between atoms: C_16  and  C_17
REMARK    4  A    between atoms: C_17  and  C_18
REMARK    5  A    between atoms: C_18  and  C_20
REMARK    6  A    between atoms: C_20  and  C_22
REMARK    7  A    between atoms: C_21  and  C_23
REMARK                            x       y       z     vdW  Elec       q    Type
REMARK                         _______ _______ _______ _____ _____    ______ ____
ROOT
ATOM      1  O   UNL     1       4.293  -1.389   5.561  0.00  0.00    +0.000 OA
ATOM      2  N   UNL     1       3.835  -3.614   5.177  0.00  0.00    +0.000 N 
ATOM      3  N   UNL     1       4.030  -5.581   3.262  0.00  0.00    +0.000 N 
ATOM      4  N   UNL     1       3.043  -4.521   1.645  0.00  0.00    +0.000 NA
ATOM      5  N   UNL     1       4.201  -6.408   2.223  0.00  0.00    +0.000 NA
ATOM      6  C   UNL     1       3.005  -3.389   3.950  0.00  0.00    +0.000 C 
ATOM      7  C   UNL     1       3.894  -5.020   5.615  0.00  0.00    +0.000 C 
ATOM      8  C   UNL     1       4.575  -5.883   4.564  0.00  0.00    +0.000 C 
ATOM      9  C   UNL     1       3.348  -4.451   2.926  0.00  0.00    +0.000 A 
ATOM     10  C   UNL     1       4.385  -2.563   5.910  0.00  0.00    +0.000 C 
ATOM     11  C   UNL     1       3.040  -2.005   3.301  0.00  0.00    +0.000 C 
ATOM     12  C   UNL     1       3.598  -5.727   1.224  0.00  0.00    +0.000 A 
ENDROOT
BRANCH  12  16
ATOM     13  F   UNL     1       2.920  -5.356  -1.050  0.00  0.00    +0.000 F 
ATOM     14  F   UNL     1       2.877  -7.408  -0.316  0.00  0.00    +0.000 F 
ATOM     15  F   UNL     1       4.787  -6.433  -0.725  0.00  0.00    +0.000 F 
ATOM     16  C   UNL     1       3.544  -6.225  -0.206  0.00  0.00    +0.000 C 
ENDBRANCH  12  16
BRANCH  10  17
ATOM     17  C   UNL     1       5.166  -2.919   7.174  0.00  0.00    +0.000 C 
BRANCH  17  18
ATOM     18  C   UNL     1       5.752  -1.688   7.896  0.00  0.00    +0.000 C 
BRANCH  18  19
ATOM     19  N   UNL     1       6.624  -2.146   8.997  0.00  0.00    +0.000 NA
ATOM     20  H   UNL     1       7.309  -1.406   9.196  0.00  0.00    +0.000 HD
ATOM     21  H   UNL     1       7.164  -2.967   8.737  0.00  0.00    +0.000 HD
ENDBRANCH  18  19
BRANCH  18  22
ATOM     22  C   UNL     1       4.641  -0.770   8.467  0.00  0.00    +0.000 C 
BRANCH  22  25
ATOM     23  F   UNL     1       4.040  -0.225  11.194  0.00  0.00    +0.000 F 
ATOM     24  F   UNL     1       7.138   3.437   8.612  0.00  0.00    +0.000 F 
ATOM     25  C   UNL     1       5.149   0.449   9.203  0.00  0.00    +0.000 A 
ATOM     26  C   UNL     1       4.804   0.662  10.545  0.00  0.00    +0.000 A 
ATOM     27  C   UNL     1       5.941   1.403   8.555  0.00  0.00    +0.000 A 
ATOM     28  C   UNL     1       6.374   2.532   9.241  0.00  0.00    +0.000 A 
ATOM     29  C   UNL     1       5.239   1.797  11.229  0.00  0.00    +0.000 A 
ATOM     30  C   UNL     1       6.026   2.739  10.574  0.00  0.00    +0.000 A 
ENDBRANCH  22  25
ENDBRANCH  18  22
ENDBRANCH  17  18
ENDBRANCH  10  17
TORSDOF 6
