REMARK  Name = 24776803
REMARK  8 active torsions:
REMARK  status: ('A' for Active; 'I' for Inactive)
REMARK    1  A    between atoms: N_12  and  C_21
REMARK    2  A    between atoms: C_13  and  C_17
REMARK    3  A    between atoms: C_17  and  C_22
REMARK    4  A    between atoms: C_18  and  C_19
REMARK    5  A    between atoms: C_19  and  C_21
REMARK    6  A    between atoms: C_20  and  C_24
REMARK    7  A    between atoms: C_21  and  C_23
REMARK    8  A    between atoms: C_23  and  C_27
REMARK                            x       y       z     vdW  Elec       q    Type
REMARK                         _______ _______ _______ _____ _____    ______ ____
ROOT
ATOM      1  O   UNL     1       5.010   1.820  -5.917  0.00  0.00    +0.000 OA
ATOM      2  N   UNL     1       6.135   1.424  -3.959  0.00  0.00    +0.000 N 
ATOM      3  N   UNL     1       6.033   1.958  -1.219  0.00  0.00    +0.000 N 
ATOM      4  N   UNL     1       5.525   4.066  -1.429  0.00  0.00    +0.000 NA
ATOM      5  N   UNL     1       5.501   3.747  -0.098  0.00  0.00    +0.000 NA
ATOM      6  C   UNL     1       6.094   2.871  -3.592  0.00  0.00    +0.000 C 
ATOM      7  C   UNL     1       6.879   0.548  -3.043  0.00  0.00    +0.000 C 
ATOM      8  C   UNL     1       5.877   2.994  -2.105  0.00  0.00    +0.000 A 
ATOM      9  C   UNL     1       6.296   0.598  -1.631  0.00  0.00    +0.000 C 
ATOM     10  C   UNL     1       5.534   1.014  -5.150  0.00  0.00    +0.000 C 
ATOM     11  C   UNL     1       5.804   2.468   0.034  0.00  0.00    +0.000 A 
ENDROOT
BRANCH  11  15
ATOM     12  F   UNL     1       6.139   0.389   1.118  0.00  0.00    +0.000 F 
ATOM     13  F   UNL     1       4.722   1.769   2.014  0.00  0.00    +0.000 F 
ATOM     14  F   UNL     1       6.866   2.175   2.120  0.00  0.00    +0.000 F 
ATOM     15  C   UNL     1       5.880   1.713   1.310  0.00  0.00    +0.000 C 
ENDBRANCH  11  15
BRANCH   6  16
ATOM     16  C   UNL     1       7.386   3.614  -4.037  0.00  0.00    +0.000 C 
BRANCH  16  17
ATOM     17  C   UNL     1       7.411   5.095  -3.713  0.00  0.00    +0.000 A 
ATOM     18  C   UNL     1       8.357   5.615  -2.815  0.00  0.00    +0.000 A 
ATOM     19  C   UNL     1       6.453   5.963  -4.257  0.00  0.00    +0.000 A 
ATOM     20  C   UNL     1       8.320   6.960  -2.441  0.00  0.00    +0.000 A 
ATOM     21  C   UNL     1       6.414   7.306  -3.875  0.00  0.00    +0.000 A 
ATOM     22  C   UNL     1       7.342   7.803  -2.963  0.00  0.00    +0.000 A 
ENDBRANCH  16  17
ENDBRANCH   6  16
BRANCH  10  23
ATOM     23  C   UNL     1       5.540  -0.484  -5.452  0.00  0.00    +0.000 C 
BRANCH  23  24
ATOM     24  C   UNL     1       4.720  -0.933  -6.681  0.00  0.00    +0.000 C 
BRANCH  24  25
ATOM     25  N   UNL     1       4.696  -2.415  -6.657  0.00  0.00    +0.000 NA
ATOM     26  H   UNL     1       4.352  -2.773  -7.549  0.00  0.00    +0.000 HD
ATOM     27  H   UNL     1       4.012  -2.727  -5.968  0.00  0.00    +0.000 HD
ENDBRANCH  24  25
BRANCH  24  28
ATOM     28  C   UNL     1       5.299  -0.433  -8.032  0.00  0.00    +0.000 C 
BRANCH  28  32
ATOM     29  F   UNL     1       2.500   0.018  -8.488  0.00  0.00    +0.000 F 
ATOM     30  F   UNL     1       5.172  -2.682 -12.385  0.00  0.00    +0.000 F 
ATOM     31  F   UNL     1       2.487  -2.206 -12.624  0.00  0.00    +0.000 F 
ATOM     32  C   UNL     1       4.546  -0.905  -9.267  0.00  0.00    +0.000 A 
ATOM     33  C   UNL     1       3.175  -0.652  -9.430  0.00  0.00    +0.000 A 
ATOM     34  C   UNL     1       5.214  -1.592 -10.292  0.00  0.00    +0.000 A 
ATOM     35  C   UNL     1       4.516  -2.024 -11.419  0.00  0.00    +0.000 A 
ATOM     36  C   UNL     1       2.474  -1.093 -10.551  0.00  0.00    +0.000 A 
ATOM     37  C   UNL     1       3.154  -1.779 -11.544  0.00  0.00    +0.000 A 
ENDBRANCH  28  32
ENDBRANCH  24  28
ENDBRANCH  23  24
ENDBRANCH  10  23
TORSDOF 8
