REMARK  Name = 11281120
REMARK  6 active torsions:
REMARK  status: ('A' for Active; 'I' for Inactive)
REMARK    1  A    between atoms: N_10  and  C_18
REMARK    2  A    between atoms: C_17  and  C_18
REMARK    3  A    between atoms: C_17  and  C_19
REMARK    4  A    between atoms: C_18  and  C_20
REMARK    5  A    between atoms: C_20  and  C_22
REMARK    6  A    between atoms: C_21  and  C_23
REMARK                            x       y       z     vdW  Elec       q    Type
REMARK                         _______ _______ _______ _____ _____    ______ ____
ROOT
ATOM      1  O   UNL     1      -0.009  -2.976  -1.445  0.00  0.00    +0.000 OA
ATOM      2  N   UNL     1      -1.970  -3.495  -2.485  0.00  0.00    +0.000 N 
ATOM      3  N   UNL     1      -5.131  -3.780  -2.942  0.00  0.00    +0.000 N 
ATOM      4  N   UNL     1      -6.268  -2.430  -1.647  0.00  0.00    +0.000 NA
ATOM      5  N   UNL     1      -7.144  -3.067  -2.477  0.00  0.00    +0.000 NA
ATOM      6  C   UNL     1      -2.769  -3.606  -3.713  0.00  0.00    +0.000 C 
ATOM      7  C   UNL     1      -2.686  -3.425  -1.201  0.00  0.00    +0.000 C 
ATOM      8  C   UNL     1      -4.019  -4.466  -3.560  0.00  0.00    +0.000 C 
ATOM      9  C   UNL     1      -3.817  -2.402  -1.209  0.00  0.00    +0.000 C 
ATOM     10  C   UNL     1      -5.057  -2.867  -1.906  0.00  0.00    +0.000 A 
ATOM     11  C   UNL     1      -0.609  -3.227  -2.488  0.00  0.00    +0.000 C 
ATOM     12  C   UNL     1      -6.468  -3.897  -3.251  0.00  0.00    +0.000 A 
ENDROOT
BRANCH  12  16
ATOM     13  F   UNL     1      -6.160  -5.643  -4.846  0.00  0.00    +0.000 F 
ATOM     14  F   UNL     1      -7.618  -4.100  -5.304  0.00  0.00    +0.000 F 
ATOM     15  F   UNL     1      -8.035  -5.596  -3.764  0.00  0.00    +0.000 F 
ATOM     16  C   UNL     1      -7.065  -4.796  -4.279  0.00  0.00    +0.000 C 
ENDBRANCH  12  16
BRANCH  11  17
ATOM     17  C   UNL     1       0.113  -3.194  -3.824  0.00  0.00    +0.000 C 
BRANCH  17  18
ATOM     18  C   UNL     1       1.631  -2.999  -3.676  0.00  0.00    +0.000 C 
BRANCH  18  19
ATOM     19  N   UNL     1       2.197  -2.822  -5.031  0.00  0.00    +0.000 NA
ATOM     20  H   UNL     1       3.155  -2.483  -4.939  0.00  0.00    +0.000 HD
ATOM     21  H   UNL     1       1.695  -2.084  -5.524  0.00  0.00    +0.000 HD
ENDBRANCH  18  19
BRANCH  18  22
ATOM     22  C   UNL     1       2.283  -4.212  -2.961  0.00  0.00    +0.000 C 
BRANCH  22  25
ATOM     23  F   UNL     1       3.658  -2.214  -1.433  0.00  0.00    +0.000 F 
ATOM     24  F   UNL     1       6.719  -6.092  -3.722  0.00  0.00    +0.000 F 
ATOM     25  C   UNL     1       3.782  -4.157  -2.791  0.00  0.00    +0.000 A 
ATOM     26  C   UNL     1       4.398  -3.162  -2.024  0.00  0.00    +0.000 A 
ATOM     27  C   UNL     1       4.585  -5.155  -3.359  0.00  0.00    +0.000 A 
ATOM     28  C   UNL     1       5.965  -5.129  -3.175  0.00  0.00    +0.000 A 
ATOM     29  C   UNL     1       5.782  -3.135  -1.846  0.00  0.00    +0.000 A 
ATOM     30  C   UNL     1       6.572  -4.124  -2.430  0.00  0.00    +0.000 A 
ENDBRANCH  22  25
ENDBRANCH  18  22
ENDBRANCH  17  18
ENDBRANCH  11  17
TORSDOF 6
