REMARK  Name = 10455621
REMARK  8 active torsions:
REMARK  status: ('A' for Active; 'I' for Inactive)
REMARK    1  A    between atoms: N_12  and  C_22
REMARK    2  A    between atoms: C_13  and  C_18
REMARK    3  A    between atoms: C_14  and  C_19
REMARK    4  A    between atoms: C_17  and  C_21
REMARK    5  A    between atoms: C_20  and  C_24
REMARK    6  A    between atoms: C_21  and  C_22
REMARK    7  A    between atoms: C_22  and  C_23
REMARK    8  A    between atoms: C_23  and  C_25
REMARK                            x       y       z     vdW  Elec       q    Type
REMARK                         _______ _______ _______ _____ _____    ______ ____
ROOT
ATOM      1  O   UNL     1       6.515   4.236   3.989  0.00  0.00    +0.000 OA
ATOM      2  N   UNL     1       4.214   4.118   3.814  0.00  0.00    +0.000 N 
ATOM      3  N   UNL     1       1.793   4.433   2.465  0.00  0.00    +0.000 N 
ATOM      4  N   UNL     1       2.421   6.181   1.318  0.00  0.00    +0.000 NA
ATOM      5  N   UNL     1       1.269   5.695   0.766  0.00  0.00    +0.000 NA
ATOM      6  C   UNL     1       1.831   3.411   3.499  0.00  0.00    +0.000 C 
ATOM      7  C   UNL     1       4.066   5.418   3.099  0.00  0.00    +0.000 C 
ATOM      8  C   UNL     1       2.986   3.674   4.480  0.00  0.00    +0.000 C 
ATOM      9  C   UNL     1       2.787   5.375   2.290  0.00  0.00    +0.000 A 
ATOM     10  C   UNL     1       5.467   3.638   4.215  0.00  0.00    +0.000 C 
ATOM     11  C   UNL     1       0.533   3.285   4.305  0.00  0.00    +0.000 C 
ATOM     12  C   UNL     1       5.223   5.842   2.186  0.00  0.00    +0.000 C 
ATOM     13  C   UNL     1       0.922   4.593   1.416  0.00  0.00    +0.000 A 
ENDROOT
BRANCH  13  17
ATOM     14  F   UNL     1      -0.220   2.551   1.804  0.00  0.00    +0.000 F 
ATOM     15  F   UNL     1      -0.144   3.278  -0.235  0.00  0.00    +0.000 F 
ATOM     16  F   UNL     1      -1.411   4.279   1.236  0.00  0.00    +0.000 F 
ATOM     17  C   UNL     1      -0.203   3.688   1.054  0.00  0.00    +0.000 C 
ENDBRANCH  13  17
BRANCH  10  18
ATOM     18  C   UNL     1       5.486   2.280   4.918  0.00  0.00    +0.000 C 
BRANCH  18  19
ATOM     19  C   UNL     1       6.896   1.726   5.187  0.00  0.00    +0.000 C 
BRANCH  19  20
ATOM     20  N   UNL     1       6.828   0.309   5.590  0.00  0.00    +0.000 NA
ATOM     21  H   UNL     1       6.093  -0.188   5.094  0.00  0.00    +0.000 HD
ATOM     22  H   UNL     1       6.628   0.223   6.590  0.00  0.00    +0.000 HD
ENDBRANCH  19  20
BRANCH  19  23
ATOM     23  C   UNL     1       7.736   2.550   6.204  0.00  0.00    +0.000 C 
BRANCH  23  27
ATOM     24  F   UNL     1       6.984   0.720   8.304  0.00  0.00    +0.000 F 
ATOM     25  F   UNL     1       6.094   6.007   9.243  0.00  0.00    +0.000 F 
ATOM     26  F   UNL     1       5.460   4.138  11.139  0.00  0.00    +0.000 F 
ATOM     27  C   UNL     1       7.084   2.958   7.510  0.00  0.00    +0.000 A 
ATOM     28  C   UNL     1       6.762   2.025   8.507  0.00  0.00    +0.000 A 
ATOM     29  C   UNL     1       6.846   4.317   7.779  0.00  0.00    +0.000 A 
ATOM     30  C   UNL     1       6.303   4.707   9.002  0.00  0.00    +0.000 A 
ATOM     31  C   UNL     1       6.211   2.411   9.725  0.00  0.00    +0.000 A 
ATOM     32  C   UNL     1       5.986   3.758   9.967  0.00  0.00    +0.000 A 
ENDBRANCH  23  27
ENDBRANCH  19  23
ENDBRANCH  18  19
ENDBRANCH  10  18
TORSDOF 6
