REMARK  Name = 11741505
REMARK  9 active torsions:
REMARK  status: ('A' for Active; 'I' for Inactive)
REMARK    1  A    between atoms: O_4  and  C_19
REMARK    2  A    between atoms: O_4  and  C_21
REMARK    3  A    between atoms: N_9  and  C_16
REMARK    4  A    between atoms: C_15  and  C_16
REMARK    5  A    between atoms: C_15  and  C_17
REMARK    6  A    between atoms: C_16  and  C_18
REMARK    7  A    between atoms: C_18  and  C_20
REMARK    8  A    between atoms: C_21  and  C_24
REMARK    9  A    between atoms: C_21  and  C_25
REMARK                            x       y       z     vdW  Elec       q    Type
REMARK                         _______ _______ _______ _____ _____    ______ ____
ROOT
ATOM      1  C   UNL     1       5.723   4.887  -1.836  0.00  0.00    +0.000 C 
ENDROOT
BRANCH   1  11
ATOM      2  O   UNL     1       3.602   3.912  -1.322  0.00  0.00    +0.000 OA
ATOM      3  N   UNL     1       5.375   3.021  -0.190  0.00  0.00    +0.000 N 
ATOM      4  N   UNL     1       5.162   2.625   2.538  0.00  0.00    +0.000 N 
ATOM      5  N   UNL     1       7.123   3.451   3.037  0.00  0.00    +0.000 NA
ATOM      6  N   UNL     1       6.457   3.154   4.208  0.00  0.00    +0.000 NA
ATOM      7  C   UNL     1       4.558   1.903   0.305  0.00  0.00    +0.000 C 
ATOM      8  C   UNL     1       4.048   2.206   1.714  0.00  0.00    +0.000 C 
ATOM      9  C   UNL     1       6.614   3.238   0.566  0.00  0.00    +0.000 C 
ATOM     10  C   UNL     1       6.335   3.132   2.032  0.00  0.00    +0.000 A 
ATOM     11  C   UNL     1       4.809   3.933  -1.073  0.00  0.00    +0.000 C 
ATOM     12  C   UNL     1       5.276   2.661   3.893  0.00  0.00    +0.000 A 
BRANCH  12  13
ATOM     13  O   UNL     1       4.322   2.268   4.733  0.00  0.00    +0.000 OA
BRANCH  13  14
ATOM     14  C   UNL     1       4.465   2.753   6.080  0.00  0.00    +0.000 C 
ATOM     15  C   UNL     1       4.015   4.213   6.141  0.00  0.00    +0.000 C 
ATOM     16  C   UNL     1       3.611   1.886   7.005  0.00  0.00    +0.000 C 
ENDBRANCH  13  14
ENDBRANCH  12  13
ENDBRANCH   1  11
BRANCH   1  17
ATOM     17  C   UNL     1       5.609   6.384  -1.471  0.00  0.00    +0.000 C 
BRANCH  17  18
ATOM     18  N   UNL     1       6.435   7.133  -2.442  0.00  0.00    +0.000 NA
ATOM     19  H   UNL     1       6.082   6.977  -3.387  0.00  0.00    +0.000 HD
ATOM     20  H   UNL     1       6.335   8.135  -2.276  0.00  0.00    +0.000 HD
ENDBRANCH  17  18
BRANCH  17  21
ATOM     21  C   UNL     1       6.108   6.660  -0.035  0.00  0.00    +0.000 C 
BRANCH  21  25
ATOM     22  F   UNL     1       3.936   8.522   0.171  0.00  0.00    +0.000 F 
ATOM     23  F   UNL     1       8.858  10.291   1.715  0.00  0.00    +0.000 F 
ATOM     24  F   UNL     1       6.671  11.921   1.949  0.00  0.00    +0.000 F 
ATOM     25  C   UNL     1       6.253   8.095   0.418  0.00  0.00    +0.000 A 
ATOM     26  C   UNL     1       5.152   8.951   0.531  0.00  0.00    +0.000 A 
ATOM     27  C   UNL     1       7.514   8.573   0.819  0.00  0.00    +0.000 A 
ATOM     28  C   UNL     1       7.650   9.863   1.325  0.00  0.00    +0.000 A 
ATOM     29  C   UNL     1       5.286  10.242   1.041  0.00  0.00    +0.000 A 
ATOM     30  C   UNL     1       6.540  10.689   1.440  0.00  0.00    +0.000 A 
ENDBRANCH  21  25
ENDBRANCH  17  21
ENDBRANCH   1  17
TORSDOF 7
