REMARK  Name = 24776696
REMARK  15 active torsions:
REMARK  status: ('A' for Active; 'I' for Inactive)
REMARK    1  A    between atoms: O_9  and  C_30
REMARK    2  A    between atoms: O_9  and  C_31
REMARK    3  A    between atoms: N_15  and  C_24
REMARK    4  A    between atoms: N_16  and  C_32
REMARK    5  A    between atoms: N_16  and  C_33
REMARK    6  A    between atoms: C_17  and  C_21
REMARK    7  A    between atoms: C_21  and  C_27
REMARK    8  A    between atoms: C_22  and  C_23
REMARK    9  A    between atoms: C_23  and  C_24
REMARK   10  A    between atoms: C_24  and  C_26
REMARK   11  A    between atoms: C_25  and  C_28
REMARK   12  A    between atoms: C_26  and  C_29
REMARK   13  A    between atoms: C_31  and  C_38
REMARK   14  A    between atoms: C_31  and  C_39
REMARK   15  A    between atoms: C_31  and  C_40
REMARK                            x       y       z     vdW  Elec       q    Type
REMARK                         _______ _______ _______ _____ _____    ______ ____
ROOT
ATOM      1  O   UNL     1       3.504   8.309   1.010  0.00  0.00    +0.000 OA
ATOM      2  N   UNL     1       4.179   6.373  -0.079  0.00  0.00    +0.000 N 
ATOM      3  N   UNL     1       6.412   4.911  -0.932  0.00  0.00    +0.000 N 
ATOM      4  N   UNL     1       7.402   6.558  -1.957  0.00  0.00    +0.000 NA
ATOM      5  N   UNL     1       8.206   5.441  -2.036  0.00  0.00    +0.000 NA
ATOM      6  C   UNL     1       5.101   7.085  -1.011  0.00  0.00    +0.000 C 
ATOM      7  C   UNL     1       4.069   4.917  -0.277  0.00  0.00    +0.000 C 
ATOM      8  C   UNL     1       5.422   4.240  -0.125  0.00  0.00    +0.000 C 
ATOM      9  C   UNL     1       6.304   6.225  -1.313  0.00  0.00    +0.000 A 
ATOM     10  C   UNL     1       3.435   7.088   0.883  0.00  0.00    +0.000 C 
ATOM     11  C   UNL     1       7.608   4.442  -1.407  0.00  0.00    +0.000 A 
ENDROOT
BRANCH  11  15
ATOM     12  F   UNL     1       7.351   2.321  -0.372  0.00  0.00    +0.000 F 
ATOM     13  F   UNL     1       9.375   3.000  -0.758  0.00  0.00    +0.000 F 
ATOM     14  F   UNL     1       8.097   2.361  -2.411  0.00  0.00    +0.000 F 
ATOM     15  C   UNL     1       8.108   3.049  -1.240  0.00  0.00    +0.000 C 
ENDBRANCH  11  15
BRANCH   6  16
ATOM     16  C   UNL     1       4.443   7.627  -2.296  0.00  0.00    +0.000 C 
BRANCH  16  19
ATOM     17  O   UNL     1       2.738   6.137  -3.010  0.00  0.00    +0.000 OA
ATOM     18  N   UNL     1       4.570   6.177  -4.374  0.00  0.00    +0.000 N 
ATOM     19  C   UNL     1       3.862   6.592  -3.253  0.00  0.00    +0.000 C 
ATOM     20  C   UNL     1       3.950   5.223  -5.287  0.00  0.00    +0.000 C 
ATOM     21  C   UNL     1       5.912   6.600  -4.753  0.00  0.00    +0.000 C 
ENDBRANCH  16  19
ENDBRANCH   6  16
BRANCH  10  22
ATOM     22  C   UNL     1       2.553   6.225   1.787  0.00  0.00    +0.000 C 
BRANCH  22  23
ATOM     23  C   UNL     1       1.748   6.807   2.971  0.00  0.00    +0.000 C 
BRANCH  23  25
ATOM     24  O   UNL     1      -0.144   4.919   1.982  0.00  0.00    +0.000 OA
ATOM     25  N   UNL     1       1.139   5.674   3.717  0.00  0.00    +0.000 N 
ATOM     26  C   UNL     1       0.176   4.875   3.160  0.00  0.00    +0.000 C 
ATOM     27  H   UNL     1       1.209   5.642   4.726  0.00  0.00    +0.000 HD
BRANCH  26  28
ATOM     28  O   UNL     1      -0.406   4.089   4.100  0.00  0.00    +0.000 OA
BRANCH  28  29
ATOM     29  C   UNL     1      -1.606   3.351   3.727  0.00  0.00    +0.000 C 
ATOM     30  C   UNL     1      -1.330   2.306   2.634  0.00  0.00    +0.000 C 
ATOM     31  C   UNL     1      -2.064   2.604   4.990  0.00  0.00    +0.000 C 
ATOM     32  C   UNL     1      -2.727   4.324   3.330  0.00  0.00    +0.000 C 
ENDBRANCH  28  29
ENDBRANCH  26  28
ENDBRANCH  23  25
BRANCH  23  33
ATOM     33  C   UNL     1       0.656   7.847   2.596  0.00  0.00    +0.000 C 
BRANCH  33  37
ATOM     34  F   UNL     1       1.651   9.385   4.783  0.00  0.00    +0.000 F 
ATOM     35  F   UNL     1      -3.635   8.092   4.994  0.00  0.00    +0.000 F 
ATOM     36  F   UNL     1      -2.502   9.586   6.991  0.00  0.00    +0.000 F 
ATOM     37  C   UNL     1      -0.200   8.305   3.773  0.00  0.00    +0.000 A 
ATOM     38  C   UNL     1       0.351   9.066   4.814  0.00  0.00    +0.000 A 
ATOM     39  C   UNL     1      -1.568   7.982   3.850  0.00  0.00    +0.000 A 
ATOM     40  C   UNL     1      -2.336   8.415   4.935  0.00  0.00    +0.000 A 
ATOM     41  C   UNL     1      -0.416   9.503   5.896  0.00  0.00    +0.000 A 
ATOM     42  C   UNL     1      -1.763   9.174   5.949  0.00  0.00    +0.000 A 
ENDBRANCH  33  37
ENDBRANCH  23  33
ENDBRANCH  22  23
ENDBRANCH  10  22
TORSDOF 10
