REMARK  Name = 11318070
REMARK  12 active torsions:
REMARK  status: ('A' for Active; 'I' for Inactive)
REMARK    1  A    between atoms: O_7  and  C_25
REMARK    2  A    between atoms: O_7  and  C_26
REMARK    3  A    between atoms: N_11  and  C_18
REMARK    4  A    between atoms: C_18  and  C_19
REMARK    5  A    between atoms: C_18  and  C_22
REMARK    6  A    between atoms: C_19  and  C_20
REMARK    7  A    between atoms: C_21  and  C_23
REMARK    8  A    between atoms: C_22  and  C_24
REMARK    9  A    between atoms: C_23  and  C_27
REMARK   10  A    between atoms: C_25  and  C_30
REMARK   11  A    between atoms: C_25  and  C_31
REMARK   12  A    between atoms: C_25  and  C_32
REMARK                            x       y       z     vdW  Elec       q    Type
REMARK                         _______ _______ _______ _____ _____    ______ ____
ROOT
ATOM      1  C   UNL     1       3.628  -6.933  -1.204  0.00  0.00    +0.000 C 
ENDROOT
BRANCH   1   3
ATOM      2  O   UNL     1       2.337  -4.999   0.513  0.00  0.00    +0.000 OA
ATOM      3  N   UNL     1       2.249  -6.399  -1.291  0.00  0.00    +0.000 N 
ATOM      4  C   UNL     1       1.698  -5.576  -0.355  0.00  0.00    +0.000 C 
ATOM      5  H   UNL     1       1.582  -6.890  -1.874  0.00  0.00    +0.000 HD
BRANCH   4   6
ATOM      6  O   UNL     1       0.350  -5.529  -0.507  0.00  0.00    +0.000 OA
BRANCH   6   7
ATOM      7  C   UNL     1      -0.468  -4.815   0.464  0.00  0.00    +0.000 C 
ATOM      8  C   UNL     1      -0.181  -3.309   0.435  0.00  0.00    +0.000 C 
ATOM      9  C   UNL     1      -1.931  -5.038   0.041  0.00  0.00    +0.000 C 
ATOM     10  C   UNL     1      -0.301  -5.397   1.875  0.00  0.00    +0.000 C 
ENDBRANCH   6   7
ENDBRANCH   4   6
ENDBRANCH   1   3
BRANCH   1  11
ATOM     11  C   UNL     1       4.668  -5.802  -1.345  0.00  0.00    +0.000 C 
BRANCH  11  21
ATOM     12  O   UNL     1       6.398  -7.469  -1.482  0.00  0.00    +0.000 OA
ATOM     13  N   UNL     1       7.081  -5.293  -1.655  0.00  0.00    +0.000 N 
ATOM     14  N   UNL     1       8.456  -3.836  -3.564  0.00  0.00    +0.000 N 
ATOM     15  N   UNL     1      10.239  -5.091  -3.586  0.00  0.00    +0.000 NA
ATOM     16  N   UNL     1      10.381  -4.110  -4.538  0.00  0.00    +0.000 NA
ATOM     17  C   UNL     1       6.836  -3.849  -1.740  0.00  0.00    +0.000 C 
ATOM     18  C   UNL     1       7.149  -3.362  -3.153  0.00  0.00    +0.000 C 
ATOM     19  C   UNL     1       8.478  -5.705  -1.872  0.00  0.00    +0.000 C 
ATOM     20  C   UNL     1       9.072  -4.926  -3.002  0.00  0.00    +0.000 A 
ATOM     21  C   UNL     1       6.109  -6.274  -1.495  0.00  0.00    +0.000 C 
ATOM     22  C   UNL     1       9.302  -3.352  -4.522  0.00  0.00    +0.000 A 
BRANCH  22  23
ATOM     23  C   UNL     1       9.094  -2.133  -5.351  0.00  0.00    +0.000 C 
BRANCH  23  27
ATOM     24  F   UNL     1       7.158  -3.308  -6.149  0.00  0.00    +0.000 F 
ATOM     25  F   UNL     1       8.181  -1.972  -7.536  0.00  0.00    +0.000 F 
ATOM     26  F   UNL     1       7.021  -1.160  -5.879  0.00  0.00    +0.000 F 
ATOM     27  C   UNL     1       7.865  -2.161  -6.237  0.00  0.00    +0.000 C 
ENDBRANCH  23  27
ENDBRANCH  22  23
ENDBRANCH  11  21
ENDBRANCH   1  11
BRANCH   1  28
ATOM     28  C   UNL     1       3.822  -7.778   0.086  0.00  0.00    +0.000 C 
BRANCH  28  31
ATOM     29  F   UNL     1       3.522  -9.958  -1.737  0.00  0.00    +0.000 F 
ATOM     30  F   UNL     1       0.145  -9.881   2.530  0.00  0.00    +0.000 F 
ATOM     31  C   UNL     1       2.801  -8.882   0.252  0.00  0.00    +0.000 A 
ATOM     32  C   UNL     1       2.699  -9.923  -0.680  0.00  0.00    +0.000 A 
ATOM     33  C   UNL     1       1.933  -8.889   1.354  0.00  0.00    +0.000 A 
ATOM     34  C   UNL     1       0.980  -9.896   1.483  0.00  0.00    +0.000 A 
ATOM     35  C   UNL     1       1.746 -10.931  -0.546  0.00  0.00    +0.000 A 
ATOM     36  C   UNL     1       0.875 -10.915   0.541  0.00  0.00    +0.000 A 
ENDBRANCH  28  31
ENDBRANCH   1  28
TORSDOF 9
