REMARK  Name = 10157141
REMARK  6 active torsions:
REMARK  status: ('A' for Active; 'I' for Inactive)
REMARK    1  A    between atoms: N_11  and  C_17
REMARK    2  A    between atoms: C_16  and  C_17
REMARK    3  A    between atoms: C_16  and  C_18
REMARK    4  A    between atoms: C_17  and  C_20
REMARK    5  A    between atoms: C_19  and  C_22
REMARK    6  A    between atoms: C_20  and  C_21
REMARK                            x       y       z     vdW  Elec       q    Type
REMARK                         _______ _______ _______ _____ _____    ______ ____
ROOT
ATOM      1  O   UNL     1       5.292   4.157   4.776  0.00  0.00    +0.000 OA
ATOM      2  N   UNL     1       5.914   3.149   2.822  0.00  0.00    +0.000 N 
ATOM      3  N   UNL     1       7.337   3.664   0.487  0.00  0.00    +0.000 N 
ATOM      4  N   UNL     1       6.418   5.599   0.086  0.00  0.00    +0.000 NA
ATOM      5  N   UNL     1       7.436   5.401  -0.816  0.00  0.00    +0.000 NA
ATOM      6  C   UNL     1       6.374   2.004   2.030  0.00  0.00    +0.000 C 
ATOM      7  C   UNL     1       7.562   2.395   1.146  0.00  0.00    +0.000 C 
ATOM      8  C   UNL     1       5.477   4.323   2.050  0.00  0.00    +0.000 C 
ATOM      9  C   UNL     1       6.382   4.563   0.891  0.00  0.00    +0.000 A 
ATOM     10  C   UNL     1       5.702   3.154   4.196  0.00  0.00    +0.000 C 
ATOM     11  C   UNL     1       8.013   4.241  -0.553  0.00  0.00    +0.000 A 
ENDROOT
BRANCH  11  15
ATOM     12  F   UNL     1       9.585   2.474  -0.673  0.00  0.00    +0.000 F 
ATOM     13  F   UNL     1      10.281   4.467  -1.181  0.00  0.00    +0.000 F 
ATOM     14  F   UNL     1       8.957   3.386  -2.543  0.00  0.00    +0.000 F 
ATOM     15  C   UNL     1       9.196   3.653  -1.234  0.00  0.00    +0.000 C 
ENDBRANCH  11  15
BRANCH  10  16
ATOM     16  C   UNL     1       5.998   1.864   4.950  0.00  0.00    +0.000 C 
BRANCH  16  17
ATOM     17  C   UNL     1       5.760   1.954   6.472  0.00  0.00    +0.000 C 
BRANCH  17  18
ATOM     18  N   UNL     1       6.262   0.724   7.118  0.00  0.00    +0.000 NA
ATOM     19  H   UNL     1       7.066   0.335   6.631  0.00  0.00    +0.000 HD
ATOM     20  H   UNL     1       5.541   0.006   7.153  0.00  0.00    +0.000 HD
ENDBRANCH  17  18
BRANCH  17  21
ATOM     21  C   UNL     1       4.263   2.180   6.824  0.00  0.00    +0.000 C 
BRANCH  21  24
ATOM     22  F   UNL     1       1.747   0.395  10.612  0.00  0.00    +0.000 F 
ATOM     23  F   UNL     1       3.078   2.040  12.353  0.00  0.00    +0.000 F 
ATOM     24  C   UNL     1       3.939   2.161   8.305  0.00  0.00    +0.000 A 
ATOM     25  C   UNL     1       2.960   1.283   8.797  0.00  0.00    +0.000 A 
ATOM     26  C   UNL     1       4.589   3.025   9.202  0.00  0.00    +0.000 A 
ATOM     27  C   UNL     1       2.675   1.249  10.159  0.00  0.00    +0.000 A 
ATOM     28  C   UNL     1       4.298   2.982  10.569  0.00  0.00    +0.000 A 
ATOM     29  C   UNL     1       3.346   2.087  11.040  0.00  0.00    +0.000 A 
ENDBRANCH  21  24
ENDBRANCH  17  21
ENDBRANCH  16  17
ENDBRANCH  10  16
TORSDOF 6
