REMARK  Name = 10070798
REMARK  7 active torsions:
REMARK  status: ('A' for Active; 'I' for Inactive)
REMARK    1  A    between atoms: N_12  and  C_19
REMARK    2  A    between atoms: C_13  and  C_20
REMARK    3  A    between atoms: C_17  and  C_18
REMARK    4  A    between atoms: C_18  and  C_19
REMARK    5  A    between atoms: C_19  and  C_21
REMARK    6  A    between atoms: C_21  and  C_23
REMARK    7  A    between atoms: C_22  and  C_24
REMARK                            x       y       z     vdW  Elec       q    Type
REMARK                         _______ _______ _______ _____ _____    ______ ____
ROOT
ATOM      1  O   UNL     1       4.629  -1.826  -5.115  0.00  0.00    +0.000 OA
ATOM      2  N   UNL     1       3.727  -3.954  -4.923  0.00  0.00    +0.000 N 
ATOM      3  N   UNL     1       2.221  -6.008  -3.857  0.00  0.00    +0.000 N 
ATOM      4  N   UNL     1       1.882  -5.163  -1.889  0.00  0.00    +0.000 NA
ATOM      5  N   UNL     1       1.386  -6.892  -3.306  0.00  0.00    +0.000 NA
ATOM      6  C   UNL     1       3.415  -3.816  -3.464  0.00  0.00    +0.000 C 
ATOM      7  C   UNL     1       3.970  -5.341  -5.361  0.00  0.00    +0.000 C 
ATOM      8  C   UNL     1       2.732  -6.197  -5.190  0.00  0.00    +0.000 C 
ATOM      9  C   UNL     1       2.514  -4.968  -3.034  0.00  0.00    +0.000 A 
ATOM     10  C   UNL     1       4.306  -2.892  -5.638  0.00  0.00    +0.000 C 
ATOM     11  C   UNL     1       2.783  -2.489  -3.007  0.00  0.00    +0.000 C 
ATOM     12  C   UNL     1       1.170  -6.344  -2.092  0.00  0.00    +0.000 A 
ENDROOT
BRANCH  12  16
ATOM     13  F   UNL     1       0.164  -6.240   0.086  0.00  0.00    +0.000 F 
ATOM     14  F   UNL     1       0.650  -8.215  -0.701  0.00  0.00    +0.000 F 
ATOM     15  F   UNL     1      -1.031  -7.092  -1.527  0.00  0.00    +0.000 F 
ATOM     16  C   UNL     1       0.245  -6.964  -1.064  0.00  0.00    +0.000 C 
ENDBRANCH  12  16
BRANCH  10  17
ATOM     17  C   UNL     1       4.494  -3.120  -7.139  0.00  0.00    +0.000 C 
BRANCH  17  18
ATOM     18  C   UNL     1       4.949  -1.890  -7.945  0.00  0.00    +0.000 C 
BRANCH  18  19
ATOM     19  N   UNL     1       3.947  -0.813  -7.867  0.00  0.00    +0.000 NA
ATOM     20  H   UNL     1       4.338   0.041  -8.269  0.00  0.00    +0.000 HD
ATOM     21  H   UNL     1       3.796  -0.588  -6.878  0.00  0.00    +0.000 HD
ENDBRANCH  18  19
BRANCH  18  22
ATOM     22  C   UNL     1       5.169  -2.225  -9.442  0.00  0.00    +0.000 C 
BRANCH  22  26
ATOM     23  F   UNL     1       4.736  -5.031  -9.590  0.00  0.00    +0.000 F 
ATOM     24  F   UNL     1       9.832  -3.316 -10.450  0.00  0.00    +0.000 F 
ATOM     25  F   UNL     1       9.229  -5.983 -10.598  0.00  0.00    +0.000 F 
ATOM     26  C   UNL     1       6.267  -3.223  -9.731  0.00  0.00    +0.000 A 
ATOM     27  C   UNL     1       5.984  -4.595  -9.812  0.00  0.00    +0.000 A 
ATOM     28  C   UNL     1       7.587  -2.799  -9.943  0.00  0.00    +0.000 A 
ATOM     29  C   UNL     1       8.578  -3.734 -10.237  0.00  0.00    +0.000 A 
ATOM     30  C   UNL     1       6.974  -5.530 -10.098  0.00  0.00    +0.000 A 
ATOM     31  C   UNL     1       8.271  -5.089 -10.315  0.00  0.00    +0.000 A 
ENDBRANCH  22  26
ENDBRANCH  18  22
ENDBRANCH  17  18
ENDBRANCH  10  17
TORSDOF 6
