REMARK  Name = 24776581
REMARK  8 active torsions:
REMARK  status: ('A' for Active; 'I' for Inactive)
REMARK    1  A    between atoms: N_12  and  C_21
REMARK    2  A    between atoms: C_13  and  C_17
REMARK    3  A    between atoms: C_17  and  C_22
REMARK    4  A    between atoms: C_18  and  C_19
REMARK    5  A    between atoms: C_19  and  C_21
REMARK    6  A    between atoms: C_20  and  C_24
REMARK    7  A    between atoms: C_21  and  C_23
REMARK    8  A    between atoms: C_23  and  C_25
REMARK                            x       y       z     vdW  Elec       q    Type
REMARK                         _______ _______ _______ _____ _____    ______ ____
ROOT
ATOM      1  O   UNL     1       6.467   5.552   2.453  0.00  0.00    +0.000 OA
ATOM      2  N   UNL     1       4.224   5.986   2.646  0.00  0.00    +0.000 N 
ATOM      3  N   UNL     1       1.968   6.431   1.079  0.00  0.00    +0.000 N 
ATOM      4  N   UNL     1       2.885   7.919  -0.227  0.00  0.00    +0.000 NA
ATOM      5  N   UNL     1       1.612   7.661  -0.679  0.00  0.00    +0.000 NA
ATOM      6  C   UNL     1       4.326   7.131   1.707  0.00  0.00    +0.000 C 
ATOM      7  C   UNL     1       2.903   5.753   3.240  0.00  0.00    +0.000 C 
ATOM      8  C   UNL     1       3.098   7.173   0.835  0.00  0.00    +0.000 A 
ATOM      9  C   UNL     1       1.861   5.477   2.160  0.00  0.00    +0.000 C 
ATOM     10  C   UNL     1       5.379   5.265   2.951  0.00  0.00    +0.000 C 
ATOM     11  C   UNL     1       1.057   6.754   0.107  0.00  0.00    +0.000 A 
ENDROOT
BRANCH  11  15
ATOM     12  F   UNL     1      -0.543   5.188   0.884  0.00  0.00    +0.000 F 
ATOM     13  F   UNL     1      -0.535   5.634  -1.240  0.00  0.00    +0.000 F 
ATOM     14  F   UNL     1      -1.275   7.111   0.190  0.00  0.00    +0.000 F 
ATOM     15  C   UNL     1      -0.309   6.180  -0.019  0.00  0.00    +0.000 C 
ENDBRANCH  11  15
BRANCH   6  16
ATOM     16  C   UNL     1       4.475   8.480   2.444  0.00  0.00    +0.000 C 
ATOM     17  C   UNL     1       5.704   8.572   3.335  0.00  0.00    +0.000 C 
ENDBRANCH   6  16
BRANCH  10  18
ATOM     18  C   UNL     1       5.229   4.100   3.921  0.00  0.00    +0.000 C 
BRANCH  18  19
ATOM     19  C   UNL     1       6.529   3.313   4.165  0.00  0.00    +0.000 C 
BRANCH  19  20
ATOM     20  N   UNL     1       6.248   2.041   4.856  0.00  0.00    +0.000 NA
ATOM     21  H   UNL     1       5.284   1.743   4.731  0.00  0.00    +0.000 HD
ATOM     22  H   UNL     1       6.406   2.125   5.862  0.00  0.00    +0.000 HD
ENDBRANCH  19  20
BRANCH  19  23
ATOM     23  C   UNL     1       7.664   4.102   4.874  0.00  0.00    +0.000 C 
BRANCH  23  27
ATOM     24  F   UNL     1       6.945   2.867   7.386  0.00  0.00    +0.000 F 
ATOM     25  F   UNL     1       7.485   8.285   7.388  0.00  0.00    +0.000 F 
ATOM     26  F   UNL     1       6.884   6.953   9.703  0.00  0.00    +0.000 F 
ATOM     27  C   UNL     1       7.361   4.856   6.153  0.00  0.00    +0.000 A 
ATOM     28  C   UNL     1       7.055   4.202   7.356  0.00  0.00    +0.000 A 
ATOM     29  C   UNL     1       7.495   6.255   6.183  0.00  0.00    +0.000 A 
ATOM     30  C   UNL     1       7.330   6.954   7.379  0.00  0.00    +0.000 A 
ATOM     31  C   UNL     1       6.883   4.899   8.550  0.00  0.00    +0.000 A 
ATOM     32  C   UNL     1       7.027   6.279   8.554  0.00  0.00    +0.000 A 
ENDBRANCH  23  27
ENDBRANCH  19  23
ENDBRANCH  18  19
ENDBRANCH  10  18
TORSDOF 7
