REMARK  Name = 20628245
REMARK  7 active torsions:
REMARK  status: ('A' for Active; 'I' for Inactive)
REMARK    1  A    between atoms: N_7  and  C_14
REMARK    2  A    between atoms: C_12  and  C_13
REMARK    3  A    between atoms: C_12  and  C_14
REMARK    4  A    between atoms: C_14  and  C_16
REMARK    5  A    between atoms: C_15  and  C_17
REMARK    6  A    between atoms: C_16  and  C_18
REMARK    7  A    between atoms: C_17  and  C_19
REMARK                            x       y       z     vdW  Elec       q    Type
REMARK                         _______ _______ _______ _____ _____    ______ ____
ROOT
ATOM      1  C   UNL     1       1.372  -4.520   1.165  0.00  0.00    +0.000 C 
ENDROOT
BRANCH   1  11
ATOM      2  O   UNL     1       3.524  -4.447   2.189  0.00  0.00    +0.000 OA
ATOM      3  N   UNL     1       3.459  -3.718   0.026  0.00  0.00    +0.000 N 
ATOM      4  N   UNL     1       4.560  -1.541  -1.270  0.00  0.00    +0.000 N 
ATOM      5  N   UNL     1       2.871  -1.212  -2.610  0.00  0.00    +0.000 NA
ATOM      6  N   UNL     1       3.749  -0.163  -2.747  0.00  0.00    +0.000 NA
ATOM      7  C   UNL     1       4.925  -3.632  -0.057  0.00  0.00    +0.000 C 
ATOM      8  C   UNL     1       5.374  -2.186  -0.262  0.00  0.00    +0.000 C 
ATOM      9  C   UNL     1       2.753  -3.289  -1.187  0.00  0.00    +0.000 C 
ATOM     10  C   UNL     1       3.355  -2.030  -1.704  0.00  0.00    +0.000 A 
ATOM     11  C   UNL     1       2.863  -4.212   1.175  0.00  0.00    +0.000 C 
ATOM     12  C   UNL     1       4.760  -0.355  -1.920  0.00  0.00    +0.000 A 
BRANCH  12  13
ATOM     13  C   UNL     1       5.904   0.568  -1.705  0.00  0.00    +0.000 C 
ATOM     14  C   UNL     1       7.033   0.306  -2.688  0.00  0.00    +0.000 C 
ENDBRANCH  12  13
ENDBRANCH   1  11
BRANCH   1  15
ATOM     15  C   UNL     1       0.486  -3.551   1.973  0.00  0.00    +0.000 C 
BRANCH  15  16
ATOM     16  N   UNL     1      -0.898  -4.059   1.864  0.00  0.00    +0.000 NA
ATOM     17  H   UNL     1      -0.960  -4.980   2.299  0.00  0.00    +0.000 HD
ATOM     18  H   UNL     1      -1.522  -3.458   2.405  0.00  0.00    +0.000 HD
ENDBRANCH  15  16
BRANCH  15  19
ATOM     19  C   UNL     1       0.569  -2.087   1.473  0.00  0.00    +0.000 C 
BRANCH  19  21
ATOM     20  F   UNL     1       0.528  -1.349   4.249  0.00  0.00    +0.000 F 
ATOM     21  C   UNL     1      -0.417  -1.115   2.088  0.00  0.00    +0.000 A 
ATOM     22  C   UNL     1      -0.386  -0.781   3.447  0.00  0.00    +0.000 A 
ATOM     23  C   UNL     1      -1.387  -0.489   1.285  0.00  0.00    +0.000 A 
ATOM     24  C   UNL     1      -1.282   0.137   4.001  0.00  0.00    +0.000 A 
ATOM     25  C   UNL     1      -2.288   0.433   1.830  0.00  0.00    +0.000 A 
ATOM     26  C   UNL     1      -2.236   0.747   3.185  0.00  0.00    +0.000 A 
ENDBRANCH  19  21
ENDBRANCH  15  19
ENDBRANCH   1  15
TORSDOF 6
