REMARK  Name = 11957945
REMARK  6 active torsions:
REMARK  status: ('A' for Active; 'I' for Inactive)
REMARK    1  A    between atoms: N_10  and  C_17
REMARK    2  A    between atoms: C_16  and  C_17
REMARK    3  A    between atoms: C_16  and  C_18
REMARK    4  A    between atoms: C_17  and  C_19
REMARK    5  A    between atoms: C_19  and  C_21
REMARK    6  A    between atoms: C_20  and  C_22
REMARK                            x       y       z     vdW  Elec       q    Type
REMARK                         _______ _______ _______ _____ _____    ______ ____
ROOT
ATOM      1  O   UNL     1       6.181   2.182  -5.545  0.00  0.00    +0.000 OA
ATOM      2  N   UNL     1       3.987   2.132  -4.900  0.00  0.00    +0.000 N 
ATOM      3  N   UNL     1       1.651   3.619  -5.181  0.00  0.00    +0.000 N 
ATOM      4  N   UNL     1       2.541   5.537  -4.641  0.00  0.00    +0.000 NA
ATOM      5  N   UNL     1       1.237   5.749  -5.020  0.00  0.00    +0.000 NA
ATOM      6  C   UNL     1       2.704   1.458  -4.683  0.00  0.00    +0.000 C 
ATOM      7  C   UNL     1       1.584   2.193  -5.422  0.00  0.00    +0.000 C 
ATOM      8  C   UNL     1       4.058   3.528  -4.436  0.00  0.00    +0.000 C 
ATOM      9  C   UNL     1       2.792   4.253  -4.749  0.00  0.00    +0.000 A 
ATOM     10  C   UNL     1       5.143   1.537  -5.389  0.00  0.00    +0.000 C 
ATOM     11  C   UNL     1       0.697   4.587  -5.353  0.00  0.00    +0.000 A 
ENDROOT
BRANCH  11  15
ATOM     12  F   UNL     1      -0.940   3.044  -6.099  0.00  0.00    +0.000 F 
ATOM     13  F   UNL     1      -0.969   5.030  -6.972  0.00  0.00    +0.000 F 
ATOM     14  F   UNL     1      -1.618   4.728  -4.907  0.00  0.00    +0.000 F 
ATOM     15  C   UNL     1      -0.692   4.355  -5.828  0.00  0.00    +0.000 C 
ENDBRANCH  11  15
BRANCH  10  16
ATOM     16  C   UNL     1       5.074   0.058  -5.747  0.00  0.00    +0.000 C 
BRANCH  16  17
ATOM     17  C   UNL     1       6.388  -0.531  -6.305  0.00  0.00    +0.000 C 
BRANCH  17  18
ATOM     18  N   UNL     1       6.090  -1.904  -6.767  0.00  0.00    +0.000 NA
ATOM     19  H   UNL     1       6.960  -2.382  -7.007  0.00  0.00    +0.000 HD
ATOM     20  H   UNL     1       5.550  -1.865  -7.631  0.00  0.00    +0.000 HD
ENDBRANCH  17  18
BRANCH  17  21
ATOM     21  C   UNL     1       7.533  -0.550  -5.257  0.00  0.00    +0.000 C 
BRANCH  21  24
ATOM     22  F   UNL     1       8.916  -2.684  -3.974  0.00  0.00    +0.000 F 
ATOM     23  F   UNL     1      12.613  -2.437  -6.868  0.00  0.00    +0.000 F 
ATOM     24  C   UNL     1       8.861  -1.100  -5.744  0.00  0.00    +0.000 A 
ATOM     25  C   UNL     1       9.506  -2.129  -5.043  0.00  0.00    +0.000 A 
ATOM     26  C   UNL     1       9.516  -0.540  -6.853  0.00  0.00    +0.000 A 
ATOM     27  C   UNL     1      10.764  -2.590  -5.416  0.00  0.00    +0.000 A 
ATOM     28  C   UNL     1      10.778  -1.003  -7.238  0.00  0.00    +0.000 A 
ATOM     29  C   UNL     1      11.392  -2.017  -6.511  0.00  0.00    +0.000 A 
ENDBRANCH  21  24
ENDBRANCH  17  21
ENDBRANCH  16  17
ENDBRANCH  10  16
TORSDOF 6
