REMARK  Name = 24776808
REMARK  9 active torsions:
REMARK  status: ('A' for Active; 'I' for Inactive)
REMARK    1  A    between atoms: N_15  and  C_25
REMARK    2  A    between atoms: C_16  and  C_20
REMARK    3  A    between atoms: C_20  and  C_24
REMARK    4  A    between atoms: C_21  and  C_22
REMARK    5  A    between atoms: C_22  and  C_25
REMARK    6  A    between atoms: C_23  and  C_28
REMARK    7  A    between atoms: C_25  and  C_26
REMARK    8  A    between atoms: C_26  and  C_30
REMARK    9  A    between atoms: C_27  and  C_32
REMARK                            x       y       z     vdW  Elec       q    Type
REMARK                         _______ _______ _______ _____ _____    ______ ____
ROOT
ATOM      1  O   UNL     1       3.043   7.467  -2.218  0.00  0.00    +0.000 OA
ATOM      2  N   UNL     1       1.712   7.171  -4.071  0.00  0.00    +0.000 N 
ATOM      3  N   UNL     1       1.145   7.382  -6.816  0.00  0.00    +0.000 N 
ATOM      4  N   UNL     1       2.358   9.135  -7.206  0.00  0.00    +0.000 NA
ATOM      5  N   UNL     1       1.778   8.733  -8.388  0.00  0.00    +0.000 NA
ATOM      6  C   UNL     1       2.503   8.209  -4.831  0.00  0.00    +0.000 C 
ATOM      7  C   UNL     1       0.361   6.892  -4.584  0.00  0.00    +0.000 C 
ATOM      8  C   UNL     1       2.042   8.261  -6.274  0.00  0.00    +0.000 A 
ATOM      9  C   UNL     1       0.395   6.437  -6.033  0.00  0.00    +0.000 C 
ATOM     10  C   UNL     1       2.043   6.960  -2.732  0.00  0.00    +0.000 C 
ATOM     11  C   UNL     1       1.084   7.634  -8.158  0.00  0.00    +0.000 A 
ENDROOT
BRANCH  11  15
ATOM     12  F   UNL     1      -0.081   5.622  -8.580  0.00  0.00    +0.000 F 
ATOM     13  F   UNL     1       1.160   6.409 -10.178  0.00  0.00    +0.000 F 
ATOM     14  F   UNL     1      -0.724   7.394  -9.662  0.00  0.00    +0.000 F 
ATOM     15  C   UNL     1       0.368   6.781  -9.141  0.00  0.00    +0.000 C 
ENDBRANCH  11  15
BRANCH   6  16
ATOM     16  C   UNL     1       4.053   7.991  -4.781  0.00  0.00    +0.000 C 
BRANCH  16  17
ATOM     17  C   UNL     1       4.926   9.008  -5.502  0.00  0.00    +0.000 A 
ATOM     18  C   UNL     1       4.978  10.385  -5.181  0.00  0.00    +0.000 A 
ATOM     19  C   UNL     1       5.749   8.525  -6.540  0.00  0.00    +0.000 A 
ATOM     20  C   UNL     1       5.737  11.244  -6.006  0.00  0.00    +0.000 A 
ATOM     21  C   UNL     1       6.534   9.386  -7.305  0.00  0.00    +0.000 A 
ATOM     22  C   UNL     1       6.502  10.751  -7.061  0.00  0.00    +0.000 A 
BRANCH  18  26
ATOM     23  F   UNL     1       3.736  10.173  -3.106  0.00  0.00    +0.000 F 
ATOM     24  F   UNL     1       5.177  11.777  -3.249  0.00  0.00    +0.000 F 
ATOM     25  F   UNL     1       3.311  11.893  -4.354  0.00  0.00    +0.000 F 
ATOM     26  C   UNL     1       4.304  11.033  -3.990  0.00  0.00    +0.000 C 
ENDBRANCH  18  26
ENDBRANCH  16  17
ENDBRANCH   6  16
BRANCH  10  27
ATOM     27  C   UNL     1       1.183   6.038  -1.873  0.00  0.00    +0.000 C 
BRANCH  27  28
ATOM     28  C   UNL     1       1.172   6.556  -0.424  0.00  0.00    +0.000 C 
BRANCH  28  29
ATOM     29  N   UNL     1       0.408   5.610   0.409  0.00  0.00    +0.000 NA
ATOM     30  H   UNL     1      -0.568   5.904   0.470  0.00  0.00    +0.000 HD
ATOM     31  H   UNL     1       0.757   5.662   1.368  0.00  0.00    +0.000 HD
ENDBRANCH  28  29
BRANCH  28  32
ATOM     32  C   UNL     1       0.563   7.982  -0.402  0.00  0.00    +0.000 C 
BRANCH  32  36
ATOM     33  F   UNL     1      -1.860   8.767   0.823  0.00  0.00    +0.000 F 
ATOM     34  F   UNL     1       2.730   9.865   3.547  0.00  0.00    +0.000 F 
ATOM     35  F   UNL     1       0.301  10.618   4.561  0.00  0.00    +0.000 F 
ATOM     36  C   UNL     1       0.505   8.636   0.950  0.00  0.00    +0.000 A 
ATOM     37  C   UNL     1      -0.727   9.029   1.488  0.00  0.00    +0.000 A 
ATOM     38  C   UNL     1       1.682   8.927   1.655  0.00  0.00    +0.000 A 
ATOM     39  C   UNL     1       1.604   9.589   2.875  0.00  0.00    +0.000 A 
ATOM     40  C   UNL     1      -0.805   9.695   2.703  0.00  0.00    +0.000 A 
ATOM     41  C   UNL     1       0.369   9.969   3.392  0.00  0.00    +0.000 A 
ENDBRANCH  32  36
ENDBRANCH  28  32
ENDBRANCH  27  28
ENDBRANCH  10  27
TORSDOF 9
