REMARK  Name = 9967350
REMARK  7 active torsions:
REMARK  status: ('A' for Active; 'I' for Inactive)
REMARK    1  A    between atoms: N_7  and  C_14
REMARK    2  A    between atoms: C_12  and  C_13
REMARK    3  A    between atoms: C_12  and  C_14
REMARK    4  A    between atoms: C_14  and  C_16
REMARK    5  A    between atoms: C_15  and  C_17
REMARK    6  A    between atoms: C_16  and  C_18
REMARK    7  A    between atoms: C_17  and  C_19
REMARK                            x       y       z     vdW  Elec       q    Type
REMARK                         _______ _______ _______ _____ _____    ______ ____
ROOT
ATOM      1  C   UNL     1       1.394  -4.510   1.200  0.00  0.00    +0.000 C 
ENDROOT
BRANCH   1  11
ATOM      2  O   UNL     1       3.601  -4.640   2.144  0.00  0.00    +0.000 OA
ATOM      3  N   UNL     1       3.508  -3.725   0.052  0.00  0.00    +0.000 N 
ATOM      4  N   UNL     1       4.603  -1.590  -1.321  0.00  0.00    +0.000 N 
ATOM      5  N   UNL     1       2.884  -1.283  -2.634  0.00  0.00    +0.000 NA
ATOM      6  N   UNL     1       3.749  -0.225  -2.791  0.00  0.00    +0.000 NA
ATOM      7  C   UNL     1       4.977  -3.661  -0.096  0.00  0.00    +0.000 C 
ATOM      8  C   UNL     1       5.419  -2.206  -0.298  0.00  0.00    +0.000 C 
ATOM      9  C   UNL     1       2.793  -3.330  -1.163  0.00  0.00    +0.000 C 
ATOM     10  C   UNL     1       3.389  -2.088  -1.726  0.00  0.00    +0.000 A 
ATOM     11  C   UNL     1       2.922  -4.278   1.186  0.00  0.00    +0.000 C 
ATOM     12  C   UNL     1       4.776  -0.401  -1.979  0.00  0.00    +0.000 A 
BRANCH  12  13
ATOM     13  C   UNL     1       5.910   0.541  -1.775  0.00  0.00    +0.000 C 
ATOM     14  C   UNL     1       7.059   0.254  -2.727  0.00  0.00    +0.000 C 
ENDBRANCH  12  13
ENDBRANCH   1  11
BRANCH   1  15
ATOM     15  C   UNL     1       0.474  -3.537   1.985  0.00  0.00    +0.000 C 
BRANCH  15  16
ATOM     16  N   UNL     1      -0.918  -4.032   1.829  0.00  0.00    +0.000 NA
ATOM     17  H   UNL     1      -1.013  -4.969   2.219  0.00  0.00    +0.000 HD
ATOM     18  H   UNL     1      -1.553  -3.439   2.367  0.00  0.00    +0.000 HD
ENDBRANCH  15  16
BRANCH  15  19
ATOM     19  C   UNL     1       0.534  -2.084   1.464  0.00  0.00    +0.000 C 
BRANCH  19  21
ATOM     20  F   UNL     1       0.483  -1.259   4.246  0.00  0.00    +0.000 F 
ATOM     21  C   UNL     1      -0.445  -1.088   2.069  0.00  0.00    +0.000 A 
ATOM     22  C   UNL     1      -0.427  -0.717   3.418  0.00  0.00    +0.000 A 
ATOM     23  C   UNL     1      -1.391  -0.463   1.240  0.00  0.00    +0.000 A 
ATOM     24  C   UNL     1      -1.320   0.221   3.930  0.00  0.00    +0.000 A 
ATOM     25  C   UNL     1      -2.288   0.484   1.740  0.00  0.00    +0.000 A 
ATOM     26  C   UNL     1      -2.260   0.823   3.094  0.00  0.00    +0.000 A 
ENDBRANCH  19  21
ENDBRANCH  15  19
ENDBRANCH   1  15
TORSDOF 6
