REMARK  Name = 10478099
REMARK  8 active torsions:
REMARK  status: ('A' for Active; 'I' for Inactive)
REMARK    1  A    between atoms: N_12  and  C_22
REMARK    2  A    between atoms: C_13  and  C_17
REMARK    3  A    between atoms: C_13  and  C_18
REMARK    4  A    between atoms: C_19  and  C_23
REMARK    5  A    between atoms: C_20  and  C_21
REMARK    6  A    between atoms: C_21  and  C_22
REMARK    7  A    between atoms: C_22  and  C_24
REMARK    8  A    between atoms: C_24  and  C_25
REMARK                            x       y       z     vdW  Elec       q    Type
REMARK                         _______ _______ _______ _____ _____    ______ ____
ROOT
ATOM      1  O   UNL     1       1.219   3.216   1.277  0.00  0.00    +0.000 OA
ATOM      2  N   UNL     1       1.839   6.173  -2.506  0.00  0.00    +0.000 N 
ATOM      3  N   UNL     1       1.421   5.165   0.082  0.00  0.00    +0.000 N 
ATOM      4  N   UNL     1       3.624   4.933  -2.859  0.00  0.00    +0.000 NA
ATOM      5  N   UNL     1       3.324   5.601  -4.008  0.00  0.00    +0.000 NA
ATOM      6  C   UNL     1       0.706   6.714  -1.736  0.00  0.00    +0.000 C 
ATOM      7  C   UNL     1       1.030   6.536  -0.222  0.00  0.00    +0.000 C 
ATOM      8  C   UNL     1       2.642   4.707  -0.570  0.00  0.00    +0.000 C 
ATOM      9  C   UNL     1       2.718   5.245  -1.963  0.00  0.00    +0.000 A 
ATOM     10  C   UNL     1      -0.569   5.921  -2.086  0.00  0.00    +0.000 C 
ATOM     11  C   UNL     1       0.465   8.223  -1.914  0.00  0.00    +0.000 C 
ATOM     12  C   UNL     1       2.229   6.322  -3.821  0.00  0.00    +0.000 A 
ATOM     13  C   UNL     1       0.767   4.317   0.968  0.00  0.00    +0.000 C 
ENDROOT
BRANCH  12  17
ATOM     14  F   UNL     1       0.373   7.624  -4.561  0.00  0.00    +0.000 F 
ATOM     15  F   UNL     1       1.372   6.386  -6.020  0.00  0.00    +0.000 F 
ATOM     16  F   UNL     1       2.350   8.183  -5.262  0.00  0.00    +0.000 F 
ATOM     17  C   UNL     1       1.585   7.121  -4.897  0.00  0.00    +0.000 C 
ENDBRANCH  12  17
BRANCH  13  18
ATOM     18  C   UNL     1      -0.573   4.808   1.499  0.00  0.00    +0.000 C 
BRANCH  18  19
ATOM     19  C   UNL     1      -1.331   3.818   2.394  0.00  0.00    +0.000 C 
BRANCH  19  20
ATOM     20  N   UNL     1      -1.623   2.555   1.701  0.00  0.00    +0.000 NA
ATOM     21  H   UNL     1      -1.870   1.846   2.391  0.00  0.00    +0.000 HD
ATOM     22  H   UNL     1      -0.745   2.207   1.291  0.00  0.00    +0.000 HD
ENDBRANCH  19  20
BRANCH  19  23
ATOM     23  C   UNL     1      -2.640   4.446   2.947  0.00  0.00    +0.000 C 
BRANCH  23  27
ATOM     24  F   UNL     1      -2.694   7.030   1.745  0.00  0.00    +0.000 F 
ATOM     25  F   UNL     1      -6.464   3.486   0.041  0.00  0.00    +0.000 F 
ATOM     26  F   UNL     1      -6.356   6.009  -1.021  0.00  0.00    +0.000 F 
ATOM     27  C   UNL     1      -3.656   4.868   1.905  0.00  0.00    +0.000 A 
ATOM     28  C   UNL     1      -3.630   6.153   1.349  0.00  0.00    +0.000 A 
ATOM     29  C   UNL     1      -4.631   3.963   1.448  0.00  0.00    +0.000 A 
ATOM     30  C   UNL     1      -5.538   4.359   0.467  0.00  0.00    +0.000 A 
ATOM     31  C   UNL     1      -4.532   6.548   0.364  0.00  0.00    +0.000 A 
ATOM     32  C   UNL     1      -5.486   5.638  -0.070  0.00  0.00    +0.000 A 
ENDBRANCH  23  27
ENDBRANCH  19  23
ENDBRANCH  18  19
ENDBRANCH  13  18
TORSDOF 6
