REMARK  Name = 10436080
REMARK  7 active torsions:
REMARK  status: ('A' for Active; 'I' for Inactive)
REMARK    1  A    between atoms: N_13  and  C_21
REMARK    2  A    between atoms: C_14  and  C_19
REMARK    3  A    between atoms: C_18  and  C_20
REMARK    4  A    between atoms: C_20  and  C_21
REMARK    5  A    between atoms: C_21  and  C_22
REMARK    6  A    between atoms: C_22  and  C_26
REMARK    7  A    between atoms: C_23  and  C_27
REMARK                            x       y       z     vdW  Elec       q    Type
REMARK                         _______ _______ _______ _____ _____    ______ ____
ROOT
ATOM      1  O   UNL     1       4.817   0.089  -6.060  0.00  0.00    +0.000 OA
ATOM      2  N   UNL     1       4.770  -2.030  -5.169  0.00  0.00    +0.000 N 
ATOM      3  N   UNL     1       3.548  -3.520  -3.203  0.00  0.00    +0.000 N 
ATOM      4  N   UNL     1       3.838  -2.145  -1.546  0.00  0.00    +0.000 NA
ATOM      5  N   UNL     1       2.912  -4.134  -2.201  0.00  0.00    +0.000 NA
ATOM      6  C   UNL     1       4.950  -1.514  -3.782  0.00  0.00    +0.000 C 
ATOM      7  C   UNL     1       4.746  -3.493  -5.316  0.00  0.00    +0.000 C 
ATOM      8  C   UNL     1       3.601  -4.103  -4.523  0.00  0.00    +0.000 C 
ATOM      9  C   UNL     1       4.114  -2.339  -2.824  0.00  0.00    +0.000 A 
ATOM     10  C   UNL     1       4.713  -1.125  -6.231  0.00  0.00    +0.000 C 
ATOM     11  C   UNL     1       3.098  -3.268  -1.177  0.00  0.00    +0.000 A 
ENDROOT
BRANCH   6  13
ATOM     12  F   UNL     1      10.490  -1.306  -2.544  0.00  0.00    +0.000 F 
ATOM     13  C   UNL     1       6.438  -1.473  -3.410  0.00  0.00    +0.000 A 
ATOM     14  C   UNL     1       7.200  -0.333  -3.730  0.00  0.00    +0.000 A 
ATOM     15  C   UNL     1       7.093  -2.555  -2.786  0.00  0.00    +0.000 A 
ATOM     16  C   UNL     1       8.565  -0.277  -3.436  0.00  0.00    +0.000 A 
ATOM     17  C   UNL     1       8.458  -2.496  -2.492  0.00  0.00    +0.000 A 
ATOM     18  C   UNL     1       9.181  -1.359  -2.821  0.00  0.00    +0.000 A 
ENDBRANCH   6  13
BRANCH  11  22
ATOM     19  F   UNL     1       2.880  -2.524   1.099  0.00  0.00    +0.000 F 
ATOM     20  F   UNL     1       3.087  -4.667   0.761  0.00  0.00    +0.000 F 
ATOM     21  F   UNL     1       1.219  -3.657   0.255  0.00  0.00    +0.000 F 
ATOM     22  C   UNL     1       2.576  -3.522   0.224  0.00  0.00    +0.000 C 
ENDBRANCH  11  22
BRANCH  10  23
ATOM     23  C   UNL     1       4.468  -1.709  -7.622  0.00  0.00    +0.000 C 
BRANCH  23  24
ATOM     24  C   UNL     1       4.339  -0.676  -8.760  0.00  0.00    +0.000 C 
BRANCH  24  25
ATOM     25  N   UNL     1       3.808  -1.399  -9.938  0.00  0.00    +0.000 NA
ATOM     26  H   UNL     1       4.170  -0.994 -10.802  0.00  0.00    +0.000 HD
ATOM     27  H   UNL     1       2.797  -1.264  -9.986  0.00  0.00    +0.000 HD
ENDBRANCH  24  25
BRANCH  24  28
ATOM     28  C   UNL     1       5.692   0.006  -9.098  0.00  0.00    +0.000 C 
BRANCH  28  32
ATOM     29  F   UNL     1       7.253  -0.207 -11.474  0.00  0.00    +0.000 F 
ATOM     30  F   UNL     1       3.947   4.108 -11.144  0.00  0.00    +0.000 F 
ATOM     31  F   UNL     1       5.579   3.782 -13.318  0.00  0.00    +0.000 F 
ATOM     32  C   UNL     1       5.630   1.009 -10.237  0.00  0.00    +0.000 A 
ATOM     33  C   UNL     1       6.444   0.856 -11.371  0.00  0.00    +0.000 A 
ATOM     34  C   UNL     1       4.782   2.126 -10.174  0.00  0.00    +0.000 A 
ATOM     35  C   UNL     1       4.766   3.050 -11.218  0.00  0.00    +0.000 A 
ATOM     36  C   UNL     1       6.432   1.781 -12.413  0.00  0.00    +0.000 A 
ATOM     37  C   UNL     1       5.590   2.881 -12.326  0.00  0.00    +0.000 A 
ENDBRANCH  28  32
ENDBRANCH  24  28
ENDBRANCH  23  24
ENDBRANCH  10  23
TORSDOF 7
