REMARK  Name = 11477355
REMARK  11 active torsions:
REMARK  status: ('A' for Active; 'I' for Inactive)
REMARK    1  A    between atoms: O_7  and  C_25
REMARK    2  A    between atoms: O_7  and  C_26
REMARK    3  A    between atoms: N_11  and  C_17
REMARK    4  A    between atoms: C_17  and  C_18
REMARK    5  A    between atoms: C_17  and  C_21
REMARK    6  A    between atoms: C_18  and  C_20
REMARK    7  A    between atoms: C_21  and  C_23
REMARK    8  A    between atoms: C_22  and  C_24
REMARK    9  A    between atoms: C_25  and  C_29
REMARK   10  A    between atoms: C_25  and  C_30
REMARK   11  A    between atoms: C_25  and  C_31
REMARK                            x       y       z     vdW  Elec       q    Type
REMARK                         _______ _______ _______ _____ _____    ______ ____
ROOT
ATOM      1  C   UNL     1      -0.116   7.089  -1.333  0.00  0.00    +0.000 C 
ENDROOT
BRANCH   1   3
ATOM      2  O   UNL     1       1.245   6.561   1.108  0.00  0.00    +0.000 OA
ATOM      3  N   UNL     1      -0.636   6.350  -0.172  0.00  0.00    +0.000 N 
ATOM      4  C   UNL     1       0.145   6.067   0.908  0.00  0.00    +0.000 C 
ATOM      5  H   UNL     1      -1.501   5.826  -0.242  0.00  0.00    +0.000 HD
BRANCH   4   6
ATOM      6  O   UNL     1      -0.443   5.106   1.665  0.00  0.00    +0.000 OA
BRANCH   6   7
ATOM      7  C   UNL     1       0.273   4.550   2.801  0.00  0.00    +0.000 C 
ATOM      8  C   UNL     1       0.471   5.609   3.889  0.00  0.00    +0.000 C 
ATOM      9  C   UNL     1      -0.632   3.435   3.357  0.00  0.00    +0.000 C 
ATOM     10  C   UNL     1       1.598   3.903   2.372  0.00  0.00    +0.000 C 
ENDBRANCH   6   7
ENDBRANCH   4   6
ENDBRANCH   1   3
BRANCH   1  11
ATOM     11  C   UNL     1       0.903   6.194  -2.057  0.00  0.00    +0.000 C 
BRANCH  11  21
ATOM     12  O   UNL     1       1.602   8.060  -3.385  0.00  0.00    +0.000 OA
ATOM     13  N   UNL     1       2.006   5.987  -4.274  0.00  0.00    +0.000 N 
ATOM     14  N   UNL     1       3.648   4.425  -5.899  0.00  0.00    +0.000 N 
ATOM     15  N   UNL     1       4.072   5.978  -7.365  0.00  0.00    +0.000 NA
ATOM     16  N   UNL     1       4.796   4.853  -7.692  0.00  0.00    +0.000 NA
ATOM     17  C   UNL     1       1.800   4.536  -4.308  0.00  0.00    +0.000 C 
ATOM     18  C   UNL     1       3.065   3.807  -4.734  0.00  0.00    +0.000 C 
ATOM     19  C   UNL     1       2.446   6.607  -5.536  0.00  0.00    +0.000 C 
ATOM     20  C   UNL     1       3.390   5.718  -6.272  0.00  0.00    +0.000 A 
ATOM     21  C   UNL     1       1.518   6.836  -3.287  0.00  0.00    +0.000 C 
ATOM     22  C   UNL     1       4.546   3.914  -6.795  0.00  0.00    +0.000 A 
BRANCH  22  26
ATOM     23  F   UNL     1       4.741   1.865  -5.621  0.00  0.00    +0.000 F 
ATOM     24  F   UNL     1       6.466   2.531  -6.755  0.00  0.00    +0.000 F 
ATOM     25  F   UNL     1       4.694   1.779  -7.790  0.00  0.00    +0.000 F 
ATOM     26  C   UNL     1       5.110   2.540  -6.745  0.00  0.00    +0.000 C 
ENDBRANCH  22  26
ENDBRANCH  11  21
ENDBRANCH   1  11
BRANCH   1  27
ATOM     27  C   UNL     1      -1.257   7.473  -2.303  0.00  0.00    +0.000 C 
BRANCH  27  30
ATOM     28  F   UNL     1      -3.581   6.533  -0.995  0.00  0.00    +0.000 F 
ATOM     29  F   UNL     1      -2.903  11.932  -1.193  0.00  0.00    +0.000 F 
ATOM     30  C   UNL     1      -2.282   8.387  -1.692  0.00  0.00    +0.000 A 
ATOM     31  C   UNL     1      -3.409   7.863  -1.052  0.00  0.00    +0.000 A 
ATOM     32  C   UNL     1      -2.115   9.778  -1.737  0.00  0.00    +0.000 A 
ATOM     33  C   UNL     1      -3.066  10.604  -1.145  0.00  0.00    +0.000 A 
ATOM     34  C   UNL     1      -4.357   8.692  -0.460  0.00  0.00    +0.000 A 
ATOM     35  C   UNL     1      -4.182  10.074  -0.505  0.00  0.00    +0.000 A 
ENDBRANCH  27  30
ENDBRANCH   1  27
TORSDOF 8
