REMARK  Name = 10390938
REMARK  10 active torsions:
REMARK  status: ('A' for Active; 'I' for Inactive)
REMARK    1  A    between atoms: N_13  and  C_28
REMARK    2  A    between atoms: N_13  and  C_29
REMARK    3  A    between atoms: N_14  and  C_22
REMARK    4  A    between atoms: C_15  and  C_19
REMARK    5  A    between atoms: C_19  and  C_23
REMARK    6  A    between atoms: C_20  and  C_21
REMARK    7  A    between atoms: C_21  and  C_22
REMARK    8  A    between atoms: C_22  and  C_25
REMARK    9  A    between atoms: C_24  and  C_27
REMARK   10  A    between atoms: C_25  and  C_26
REMARK                            x       y       z     vdW  Elec       q    Type
REMARK                         _______ _______ _______ _____ _____    ______ ____
ROOT
ATOM      1  O   UNL     1       5.050   4.448   6.171  0.00  0.00    +0.000 OA
ATOM      2  N   UNL     1       3.129   3.175   6.106  0.00  0.00    +0.000 N 
ATOM      3  N   UNL     1       1.179   2.213   4.418  0.00  0.00    +0.000 N 
ATOM      4  N   UNL     1       0.421   4.107   3.669  0.00  0.00    +0.000 NA
ATOM      5  N   UNL     1       0.229   1.826   3.563  0.00  0.00    +0.000 NA
ATOM      6  C   UNL     1       2.237   4.221   5.505  0.00  0.00    +0.000 C 
ATOM      7  C   UNL     1       2.425   1.932   6.465  0.00  0.00    +0.000 C 
ATOM      8  C   UNL     1       1.305   3.571   4.494  0.00  0.00    +0.000 A 
ATOM      9  C   UNL     1       1.893   1.249   5.219  0.00  0.00    +0.000 C 
ATOM     10  C   UNL     1       4.489   3.375   6.351  0.00  0.00    +0.000 C 
ATOM     11  C   UNL     1      -0.205   3.007   3.076  0.00  0.00    +0.000 A 
ENDROOT
BRANCH  11  15
ATOM     12  F   UNL     1      -1.601   4.373   1.671  0.00  0.00    +0.000 F 
ATOM     13  F   UNL     1      -2.455   2.520   2.438  0.00  0.00    +0.000 F 
ATOM     14  F   UNL     1      -0.942   2.455   0.868  0.00  0.00    +0.000 F 
ATOM     15  C   UNL     1      -1.289   3.095   2.021  0.00  0.00    +0.000 C 
ENDBRANCH  11  15
BRANCH   6  16
ATOM     16  C   UNL     1       2.806   5.567   5.036  0.00  0.00    +0.000 C 
BRANCH  16  19
ATOM     17  O   UNL     1       3.970   4.486   3.230  0.00  0.00    +0.000 OA
ATOM     18  N   UNL     1       4.389   6.738   3.538  0.00  0.00    +0.000 N 
ATOM     19  C   UNL     1       3.776   5.522   3.864  0.00  0.00    +0.000 C 
ATOM     20  C   UNL     1       5.317   6.795   2.422  0.00  0.00    +0.000 C 
ATOM     21  C   UNL     1       4.267   7.948   4.337  0.00  0.00    +0.000 C 
ENDBRANCH  16  19
ENDBRANCH   6  16
BRANCH  10  22
ATOM     22  C   UNL     1       5.273   2.162   6.876  0.00  0.00    +0.000 C 
BRANCH  22  23
ATOM     23  C   UNL     1       6.798   2.345   6.947  0.00  0.00    +0.000 C 
BRANCH  23  24
ATOM     24  N   UNL     1       7.450   1.052   7.252  0.00  0.00    +0.000 NA
ATOM     25  H   UNL     1       7.159   0.343   6.581  0.00  0.00    +0.000 HD
ATOM     26  H   UNL     1       7.164   0.718   8.171  0.00  0.00    +0.000 HD
ENDBRANCH  23  24
BRANCH  23  27
ATOM     27  C   UNL     1       7.303   3.422   7.937  0.00  0.00    +0.000 C 
BRANCH  27  31
ATOM     28  F   UNL     1       4.941   4.529   9.092  0.00  0.00    +0.000 F 
ATOM     29  F   UNL     1       8.276   1.866  12.473  0.00  0.00    +0.000 F 
ATOM     30  F   UNL     1       6.054   3.143  13.439  0.00  0.00    +0.000 F 
ATOM     31  C   UNL     1       6.929   3.267   9.394  0.00  0.00    +0.000 A 
ATOM     32  C   UNL     1       5.777   3.878   9.910  0.00  0.00    +0.000 A 
ATOM     33  C   UNL     1       7.766   2.568  10.278  0.00  0.00    +0.000 A 
ATOM     34  C   UNL     1       7.461   2.523  11.637  0.00  0.00    +0.000 A 
ATOM     35  C   UNL     1       5.474   3.838  11.267  0.00  0.00    +0.000 A 
ATOM     36  C   UNL     1       6.329   3.165  12.128  0.00  0.00    +0.000 A 
ENDBRANCH  27  31
ENDBRANCH  23  27
ENDBRANCH  22  23
ENDBRANCH  10  22
TORSDOF 8
