REMARK  Name = 10028078
REMARK  8 active torsions:
REMARK  status: ('A' for Active; 'I' for Inactive)
REMARK    1  A    between atoms: N_13  and  C_25
REMARK    2  A    between atoms: C_14  and  C_17
REMARK    3  A    between atoms: C_17  and  C_18
REMARK    4  A    between atoms: C_22  and  C_23
REMARK    5  A    between atoms: C_23  and  C_25
REMARK    6  A    between atoms: C_24  and  C_27
REMARK    7  A    between atoms: C_25  and  C_26
REMARK    8  A    between atoms: C_26  and  C_28
REMARK                            x       y       z     vdW  Elec       q    Type
REMARK                         _______ _______ _______ _____ _____    ______ ____
ROOT
ATOM      1  O   UNL     1       2.186   0.821   2.570  0.00  0.00    +0.000 OA
ATOM      2  N   UNL     1       2.175  -0.838   4.141  0.00  0.00    +0.000 N 
ATOM      3  N   UNL     1       3.272  -3.023   5.437  0.00  0.00    +0.000 N 
ATOM      4  N   UNL     1       4.371  -3.876   3.777  0.00  0.00    +0.000 NA
ATOM      5  N   UNL     1       3.907  -4.053   6.006  0.00  0.00    +0.000 NA
ATOM      6  C   UNL     1       3.036  -1.739   3.269  0.00  0.00    +0.000 C 
ATOM      7  C   UNL     1       3.568  -2.885   4.114  0.00  0.00    +0.000 A 
ATOM      8  C   UNL     1       1.449  -1.476   5.253  0.00  0.00    +0.000 C 
ATOM      9  C   UNL     1       2.398  -2.174   6.201  0.00  0.00    +0.000 C 
ATOM     10  C   UNL     1       1.796   0.406   3.657  0.00  0.00    +0.000 C 
ATOM     11  C   UNL     1       4.624  -4.540   4.975  0.00  0.00    +0.000 A 
ENDROOT
BRANCH  11  15
ATOM     12  F   UNL     1       6.260  -5.961   3.949  0.00  0.00    +0.000 F 
ATOM     13  F   UNL     1       6.620  -5.339   6.007  0.00  0.00    +0.000 F 
ATOM     14  F   UNL     1       5.071  -6.814   5.567  0.00  0.00    +0.000 F 
ATOM     15  C   UNL     1       5.635  -5.657   5.120  0.00  0.00    +0.000 C 
ENDBRANCH  11  15
BRANCH   6  17
ATOM     16  F   UNL     1       5.107  -0.563   3.486  0.00  0.00    +0.000 F 
ATOM     17  C   UNL     1       4.224  -1.016   2.545  0.00  0.00    +0.000 C 
BRANCH  17  18
ATOM     18  C   UNL     1       4.991  -1.817   1.517  0.00  0.00    +0.000 C 
ATOM     19  C   UNL     1       6.035  -1.098   0.693  0.00  0.00    +0.000 C 
ATOM     20  C   UNL     1       4.784  -1.601   0.032  0.00  0.00    +0.000 C 
ENDBRANCH  17  18
ENDBRANCH   6  17
BRANCH  10  21
ATOM     21  C   UNL     1       0.887   1.277   4.515  0.00  0.00    +0.000 C 
BRANCH  21  22
ATOM     22  C   UNL     1       0.588   2.613   3.811  0.00  0.00    +0.000 C 
BRANCH  22  23
ATOM     23  N   UNL     1      -0.138   3.495   4.744  0.00  0.00    +0.000 NA
ATOM     24  H   UNL     1      -0.307   4.393   4.288  0.00  0.00    +0.000 HD
ATOM     25  H   UNL     1       0.449   3.705   5.550  0.00  0.00    +0.000 HD
ENDBRANCH  22  23
BRANCH  22  26
ATOM     26  C   UNL     1      -0.248   2.377   2.525  0.00  0.00    +0.000 C 
BRANCH  26  30
ATOM     27  F   UNL     1      -2.831   3.244   1.786  0.00  0.00    +0.000 F 
ATOM     28  F   UNL     1       1.349   6.224  -0.038  0.00  0.00    +0.000 F 
ATOM     29  F   UNL     1      -1.224   6.921  -0.662  0.00  0.00    +0.000 F 
ATOM     30  C   UNL     1      -0.489   3.612   1.696  0.00  0.00    +0.000 A 
ATOM     31  C   UNL     1      -1.796   3.978   1.355  0.00  0.00    +0.000 A 
ATOM     32  C   UNL     1       0.581   4.375   1.201  0.00  0.00    +0.000 A 
ATOM     33  C   UNL     1       0.321   5.493   0.416  0.00  0.00    +0.000 A 
ATOM     34  C   UNL     1      -2.054   5.090   0.563  0.00  0.00    +0.000 A 
ATOM     35  C   UNL     1      -0.985   5.846   0.100  0.00  0.00    +0.000 A 
ENDBRANCH  26  30
ENDBRANCH  22  26
ENDBRANCH  21  22
ENDBRANCH  10  21
TORSDOF 8
