REMARK  Name = 20628250
REMARK  6 active torsions:
REMARK  status: ('A' for Active; 'I' for Inactive)
REMARK    1  A    between atoms: N_10  and  C_17
REMARK    2  A    between atoms: C_16  and  C_17
REMARK    3  A    between atoms: C_16  and  C_18
REMARK    4  A    between atoms: C_17  and  C_19
REMARK    5  A    between atoms: C_19  and  C_21
REMARK    6  A    between atoms: C_20  and  C_22
REMARK                            x       y       z     vdW  Elec       q    Type
REMARK                         _______ _______ _______ _____ _____    ______ ____
ROOT
ATOM      1  O   UNL     1      -0.002   6.901  -2.262  0.00  0.00    +0.000 OA
ATOM      2  N   UNL     1      -1.225   5.117  -1.533  0.00  0.00    +0.000 N 
ATOM      3  N   UNL     1      -1.760   2.555  -2.443  0.00  0.00    +0.000 N 
ATOM      4  N   UNL     1      -2.532   3.162  -4.392  0.00  0.00    +0.000 NA
ATOM      5  N   UNL     1      -2.505   1.790  -4.339  0.00  0.00    +0.000 NA
ATOM      6  C   UNL     1      -1.576   4.088  -0.551  0.00  0.00    +0.000 C 
ATOM      7  C   UNL     1      -1.226   2.708  -1.104  0.00  0.00    +0.000 C 
ATOM      8  C   UNL     1      -1.937   5.043  -2.816  0.00  0.00    +0.000 C 
ATOM      9  C   UNL     1      -2.073   3.621  -3.250  0.00  0.00    +0.000 A 
ATOM     10  C   UNL     1      -0.272   6.110  -1.360  0.00  0.00    +0.000 C 
ATOM     11  C   UNL     1      -2.035   1.420  -3.157  0.00  0.00    +0.000 A 
ENDROOT
BRANCH  11  15
ATOM     12  F   UNL     1      -1.332  -0.022  -1.413  0.00  0.00    +0.000 F 
ATOM     13  F   UNL     1      -0.978  -0.674  -3.452  0.00  0.00    +0.000 F 
ATOM     14  F   UNL     1      -3.006  -0.667  -2.638  0.00  0.00    +0.000 F 
ATOM     15  C   UNL     1      -1.840   0.028  -2.675  0.00  0.00    +0.000 C 
ENDBRANCH  11  15
BRANCH  10  16
ATOM     16  C   UNL     1       0.431   6.164  -0.013  0.00  0.00    +0.000 C 
BRANCH  16  17
ATOM     17  C   UNL     1       1.453   7.304   0.110  0.00  0.00    +0.000 C 
BRANCH  17  18
ATOM     18  N   UNL     1       2.147   7.136   1.408  0.00  0.00    +0.000 NA
ATOM     19  H   UNL     1       2.693   7.975   1.611  0.00  0.00    +0.000 HD
ATOM     20  H   UNL     1       2.837   6.390   1.321  0.00  0.00    +0.000 HD
ENDBRANCH  17  18
BRANCH  17  21
ATOM     21  C   UNL     1       0.788   8.702   0.025  0.00  0.00    +0.000 C 
BRANCH  21  24
ATOM     22  F   UNL     1       2.927   9.159  -1.817  0.00  0.00    +0.000 F 
ATOM     23  F   UNL     1       2.463  12.685   2.302  0.00  0.00    +0.000 F 
ATOM     24  C   UNL     1       1.764   9.852   0.137  0.00  0.00    +0.000 A 
ATOM     25  C   UNL     1       2.798  10.015  -0.794  0.00  0.00    +0.000 A 
ATOM     26  C   UNL     1       1.651  10.777   1.180  0.00  0.00    +0.000 A 
ATOM     27  C   UNL     1       2.573  11.813   1.292  0.00  0.00    +0.000 A 
ATOM     28  C   UNL     1       3.723  11.052  -0.677  0.00  0.00    +0.000 A 
ATOM     29  C   UNL     1       3.612  11.955   0.378  0.00  0.00    +0.000 A 
ENDBRANCH  21  24
ENDBRANCH  17  21
ENDBRANCH  16  17
ENDBRANCH  10  16
TORSDOF 6
