REMARK  Name = 24776939
REMARK  8 active torsions:
REMARK  status: ('A' for Active; 'I' for Inactive)
REMARK    1  A    between atoms: N_13  and  C_22
REMARK    2  A    between atoms: C_14  and  C_18
REMARK    3  A    between atoms: C_18  and  C_23
REMARK    4  A    between atoms: C_19  and  C_20
REMARK    5  A    between atoms: C_20  and  C_22
REMARK    6  A    between atoms: C_21  and  C_25
REMARK    7  A    between atoms: C_22  and  C_24
REMARK    8  A    between atoms: C_24  and  C_28
REMARK                            x       y       z     vdW  Elec       q    Type
REMARK                         _______ _______ _______ _____ _____    ______ ____
ROOT
ATOM      1  O   UNL     1       6.397   2.426   4.071  0.00  0.00    +0.000 OA
ATOM      2  N   UNL     1       4.401   1.351   4.387  0.00  0.00    +0.000 N 
ATOM      3  N   UNL     1       1.894   0.908   3.241  0.00  0.00    +0.000 N 
ATOM      4  N   UNL     1       1.565   2.966   2.610  0.00  0.00    +0.000 NA
ATOM      5  N   UNL     1       0.541   2.196   2.126  0.00  0.00    +0.000 NA
ATOM      6  C   UNL     1       3.638   2.583   4.023  0.00  0.00    +0.000 C 
ATOM      7  C   UNL     1       3.610   0.209   4.854  0.00  0.00    +0.000 C 
ATOM      8  C   UNL     1       2.378   2.191   3.297  0.00  0.00    +0.000 A 
ATOM      9  C   UNL     1       2.582  -0.227   3.813  0.00  0.00    +0.000 C 
ATOM     10  C   UNL     1       5.795   1.403   4.390  0.00  0.00    +0.000 C 
ATOM     11  C   UNL     1       0.748   0.942   2.492  0.00  0.00    +0.000 A 
ENDROOT
BRANCH  11  15
ATOM     12  F   UNL     1       0.440  -1.403   2.590  0.00  0.00    +0.000 F 
ATOM     13  F   UNL     1      -0.257  -0.378   0.808  0.00  0.00    +0.000 F 
ATOM     14  F   UNL     1      -1.334  -0.153   2.696  0.00  0.00    +0.000 F 
ATOM     15  C   UNL     1      -0.095  -0.231   2.147  0.00  0.00    +0.000 C 
ENDBRANCH  11  15
BRANCH   6  16
ATOM     16  C   UNL     1       3.326   3.455   5.272  0.00  0.00    +0.000 C 
BRANCH  16  18
ATOM     17  F   UNL     1       0.403   8.147   4.078  0.00  0.00    +0.000 F 
ATOM     18  C   UNL     1       2.568   4.743   4.994  0.00  0.00    +0.000 A 
ATOM     19  C   UNL     1       1.271   4.930   5.509  0.00  0.00    +0.000 A 
ATOM     20  C   UNL     1       3.126   5.752   4.198  0.00  0.00    +0.000 A 
ATOM     21  C   UNL     1       0.544   6.082   5.200  0.00  0.00    +0.000 A 
ATOM     22  C   UNL     1       2.398   6.903   3.885  0.00  0.00    +0.000 A 
ATOM     23  C   UNL     1       1.109   7.051   4.389  0.00  0.00    +0.000 A 
ENDBRANCH  16  18
ENDBRANCH   6  16
BRANCH  10  24
ATOM     24  C   UNL     1       6.540   0.117   4.760  0.00  0.00    +0.000 C 
BRANCH  24  25
ATOM     25  C   UNL     1       8.075   0.225   4.701  0.00  0.00    +0.000 C 
BRANCH  25  26
ATOM     26  N   UNL     1       8.698  -1.109   4.829  0.00  0.00    +0.000 NA
ATOM     27  H   UNL     1       8.345  -1.739   4.110  0.00  0.00    +0.000 HD
ATOM     28  H   UNL     1       8.470  -1.529   5.729  0.00  0.00    +0.000 HD
ENDBRANCH  25  26
BRANCH  25  29
ATOM     29  C   UNL     1       8.709   1.193   5.726  0.00  0.00    +0.000 C 
BRANCH  29  33
ATOM     30  F   UNL     1       6.472   2.174   7.197  0.00  0.00    +0.000 F 
ATOM     31  F   UNL     1      10.196  -0.628  10.014  0.00  0.00    +0.000 F 
ATOM     32  F   UNL     1       8.120   0.603  11.308  0.00  0.00    +0.000 F 
ATOM     33  C   UNL     1       8.487   0.920   7.197  0.00  0.00    +0.000 A 
ATOM     34  C   UNL     1       7.402   1.491   7.877  0.00  0.00    +0.000 A 
ATOM     35  C   UNL     1       9.418   0.172   7.935  0.00  0.00    +0.000 A 
ATOM     36  C   UNL     1       9.282   0.061   9.318  0.00  0.00    +0.000 A 
ATOM     37  C   UNL     1       7.266   1.382   9.257  0.00  0.00    +0.000 A 
ATOM     38  C   UNL     1       8.223   0.678   9.974  0.00  0.00    +0.000 A 
ENDBRANCH  29  33
ENDBRANCH  25  29
ENDBRANCH  24  25
ENDBRANCH  10  24
TORSDOF 8
