REMARK  Name = 24776693
REMARK  13 active torsions:
REMARK  status: ('A' for Active; 'I' for Inactive)
REMARK    1  A    between atoms: O_8  and  C_28
REMARK    2  A    between atoms: O_8  and  C_29
REMARK    3  A    between atoms: N_14  and  C_22
REMARK    4  A    between atoms: C_15  and  C_19
REMARK    5  A    between atoms: C_19  and  C_25
REMARK    6  A    between atoms: C_20  and  C_21
REMARK    7  A    between atoms: C_21  and  C_22
REMARK    8  A    between atoms: C_22  and  C_24
REMARK    9  A    between atoms: C_23  and  C_26
REMARK   10  A    between atoms: C_24  and  C_27
REMARK   11  A    between atoms: C_29  and  C_33
REMARK   12  A    between atoms: C_29  and  C_34
REMARK   13  A    between atoms: C_29  and  C_35
REMARK                            x       y       z     vdW  Elec       q    Type
REMARK                         _______ _______ _______ _____ _____    ______ ____
ROOT
ATOM      1  C   UNL     1       5.229   3.533   5.838  0.00  0.00    +0.000 C 
ENDROOT
BRANCH   1   3
ATOM      2  O   UNL     1       4.025   2.109   8.096  0.00  0.00    +0.000 OA
ATOM      3  N   UNL     1       3.874   2.977   5.977  0.00  0.00    +0.000 N 
ATOM      4  C   UNL     1       3.380   2.289   7.065  0.00  0.00    +0.000 C 
ATOM      5  H   UNL     1       3.167   3.200   5.274  0.00  0.00    +0.000 HD
BRANCH   4   6
ATOM      6  O   UNL     1       2.130   1.818   6.809  0.00  0.00    +0.000 OA
BRANCH   6   7
ATOM      7  C   UNL     1       1.469   0.875   7.732  0.00  0.00    +0.000 C 
ATOM      8  C   UNL     1       1.146   1.535   9.078  0.00  0.00    +0.000 C 
ATOM      9  C   UNL     1       0.153   0.404   7.067  0.00  0.00    +0.000 C 
ATOM     10  C   UNL     1       2.328  -0.379   7.933  0.00  0.00    +0.000 C 
ENDBRANCH   6   7
ENDBRANCH   4   6
ENDBRANCH   1   3
BRANCH   1  11
ATOM     11  C   UNL     1       5.760   3.364   4.381  0.00  0.00    +0.000 C 
BRANCH  11  21
ATOM     12  O   UNL     1       7.934   3.672   5.244  0.00  0.00    +0.000 OA
ATOM     13  N   UNL     1       7.757   4.122   2.990  0.00  0.00    +0.000 N 
ATOM     14  N   UNL     1       8.747   3.366   0.489  0.00  0.00    +0.000 N 
ATOM     15  N   UNL     1      10.839   3.856   0.865  0.00  0.00    +0.000 NA
ATOM     16  N   UNL     1      10.742   3.267  -0.374  0.00  0.00    +0.000 NA
ATOM     17  C   UNL     1       9.219   4.418   2.770  0.00  0.00    +0.000 C 
ATOM     18  C   UNL     1       6.959   4.383   1.786  0.00  0.00    +0.000 C 
ATOM     19  C   UNL     1       7.314   3.374   0.696  0.00  0.00    +0.000 C 
ATOM     20  C   UNL     1       9.637   3.880   1.406  0.00  0.00    +0.000 A 
ATOM     21  C   UNL     1       7.235   3.751   4.233  0.00  0.00    +0.000 C 
ATOM     22  C   UNL     1       9.476   2.961  -0.599  0.00  0.00    +0.000 A 
BRANCH  22  26
ATOM     23  F   UNL     1       7.581   2.067  -1.711  0.00  0.00    +0.000 F 
ATOM     24  F   UNL     1       9.493   1.099  -2.066  0.00  0.00    +0.000 F 
ATOM     25  F   UNL     1       9.080   3.063  -2.929  0.00  0.00    +0.000 F 
ATOM     26  C   UNL     1       8.920   2.304  -1.814  0.00  0.00    +0.000 C 
ENDBRANCH  22  26
BRANCH  17  27
ATOM     27  C   UNL     1      10.245   4.042   3.867  0.00  0.00    +0.000 C 
BRANCH  27  28
ATOM     28  C   UNL     1      10.310   2.586   4.265  0.00  0.00    +0.000 C 
ATOM     29  C   UNL     1      10.548   1.556   3.450  0.00  0.00    +0.000 C 
ENDBRANCH  27  28
ENDBRANCH  17  27
ENDBRANCH  11  21
ENDBRANCH   1  11
BRANCH   1  30
ATOM     30  C   UNL     1       5.373   4.994   6.374  0.00  0.00    +0.000 C 
BRANCH  30  34
ATOM     31  F   UNL     1       2.915   4.984   4.760  0.00  0.00    +0.000 F 
ATOM     32  F   UNL     1       5.633   9.694   5.081  0.00  0.00    +0.000 F 
ATOM     33  F   UNL     1       3.324   9.509   3.617  0.00  0.00    +0.000 F 
ATOM     34  C   UNL     1       4.805   6.168   5.596  0.00  0.00    +0.000 A 
ATOM     35  C   UNL     1       3.612   6.121   4.865  0.00  0.00    +0.000 A 
ATOM     36  C   UNL     1       5.470   7.411   5.674  0.00  0.00    +0.000 A 
ATOM     37  C   UNL     1       4.970   8.531   5.007  0.00  0.00    +0.000 A 
ATOM     38  C   UNL     1       3.112   7.239   4.198  0.00  0.00    +0.000 A 
ATOM     39  C   UNL     1       3.799   8.441   4.271  0.00  0.00    +0.000 A 
ENDBRANCH  30  34
ENDBRANCH   1  30
TORSDOF 10
