REMARK  Name = 10249728
REMARK  6 active torsions:
REMARK  status: ('A' for Active; 'I' for Inactive)
REMARK    1  A    between atoms: N_11  and  C_15
REMARK    2  A    between atoms: C_15  and  C_16
REMARK    3  A    between atoms: C_15  and  C_19
REMARK    4  A    between atoms: C_16  and  C_18
REMARK    5  A    between atoms: C_19  and  C_20
REMARK    6  A    between atoms: C_21  and  C_24
REMARK                            x       y       z     vdW  Elec       q    Type
REMARK                         _______ _______ _______ _____ _____    ______ ____
ROOT
ATOM      1  C   UNL     1       3.257   4.332  -0.990  0.00  0.00    +0.000 C 
ENDROOT
BRANCH   1  11
ATOM      2  O   UNL     1       4.872   2.568  -1.267  0.00  0.00    +0.000 OA
ATOM      3  N   UNL     1       5.682   4.568  -0.478  0.00  0.00    +0.000 N 
ATOM      4  N   UNL     1       7.334   5.382   1.560  0.00  0.00    +0.000 N 
ATOM      5  N   UNL     1       6.312   7.255   1.992  0.00  0.00    +0.000 NA
ATOM      6  N   UNL     1       7.967   5.818   2.661  0.00  0.00    +0.000 NA
ATOM      7  C   UNL     1       7.071   4.082  -0.475  0.00  0.00    +0.000 C 
ATOM      8  C   UNL     1       5.518   5.969  -0.049  0.00  0.00    +0.000 C 
ATOM      9  C   UNL     1       7.650   4.115   0.936  0.00  0.00    +0.000 C 
ATOM     10  C   UNL     1       6.348   6.236   1.161  0.00  0.00    +0.000 A 
ATOM     11  C   UNL     1       4.657   3.730  -0.918  0.00  0.00    +0.000 C 
ATOM     12  C   UNL     1       7.311   6.971   2.912  0.00  0.00    +0.000 A 
BRANCH  12  15
ATOM     13  F   UNL     1       7.996   9.109   3.691  0.00  0.00    +0.000 F 
ATOM     14  F   UNL     1       6.552   8.015   4.906  0.00  0.00    +0.000 F 
ATOM     15  C   UNL     1       7.629   7.855   4.084  0.00  0.00    +0.000 C 
ENDBRANCH  12  15
ENDBRANCH   1  11
BRANCH   1  16
ATOM     16  C   UNL     1       2.100   3.342  -1.244  0.00  0.00    +0.000 C 
BRANCH  16  17
ATOM     17  N   UNL     1       0.879   4.162  -1.411  0.00  0.00    +0.000 NA
ATOM     18  H   UNL     1       0.976   4.762  -2.230  0.00  0.00    +0.000 HD
ATOM     19  H   UNL     1       0.082   3.556  -1.607  0.00  0.00    +0.000 HD
ENDBRANCH  16  17
BRANCH  16  20
ATOM     20  C   UNL     1       1.928   2.360  -0.055  0.00  0.00    +0.000 C 
BRANCH  20  24
ATOM     21  F   UNL     1       1.320   0.408  -2.070  0.00  0.00    +0.000 F 
ATOM     22  F   UNL     1      -2.180   0.797   2.090  0.00  0.00    +0.000 F 
ATOM     23  F   UNL     1      -2.559  -1.087   0.139  0.00  0.00    +0.000 F 
ATOM     24  C   UNL     1       0.691   1.482  -0.051  0.00  0.00    +0.000 A 
ATOM     25  C   UNL     1       0.465   0.522  -1.045  0.00  0.00    +0.000 A 
ATOM     26  C   UNL     1      -0.230   1.571   1.009  0.00  0.00    +0.000 A 
ATOM     27  C   UNL     1      -1.322   0.709   1.063  0.00  0.00    +0.000 A 
ATOM     28  C   UNL     1      -0.629  -0.342  -0.992  0.00  0.00    +0.000 A 
ATOM     29  C   UNL     1      -1.518  -0.247   0.073  0.00  0.00    +0.000 A 
ENDBRANCH  20  24
ENDBRANCH  16  20
ENDBRANCH   1  16
TORSDOF 6
