REMARK  Name = 24776935
REMARK  8 active torsions:
REMARK  status: ('A' for Active; 'I' for Inactive)
REMARK    1  A    between atoms: N_13  and  C_22
REMARK    2  A    between atoms: C_14  and  C_18
REMARK    3  A    between atoms: C_18  and  C_23
REMARK    4  A    between atoms: C_19  and  C_20
REMARK    5  A    between atoms: C_20  and  C_22
REMARK    6  A    between atoms: C_21  and  C_25
REMARK    7  A    between atoms: C_22  and  C_24
REMARK    8  A    between atoms: C_24  and  C_28
REMARK                            x       y       z     vdW  Elec       q    Type
REMARK                         _______ _______ _______ _____ _____    ______ ____
ROOT
ATOM      1  O   UNL     1       1.034   4.757  -0.663  0.00  0.00    +0.000 OA
ATOM      2  N   UNL     1      -0.229   6.582  -1.206  0.00  0.00    +0.000 N 
ATOM      3  N   UNL     1      -2.233   7.422  -2.946  0.00  0.00    +0.000 N 
ATOM      4  N   UNL     1      -1.424   6.431  -4.709  0.00  0.00    +0.000 NA
ATOM      5  N   UNL     1      -2.636   6.981  -5.040  0.00  0.00    +0.000 NA
ATOM      6  C   UNL     1       0.061   6.378  -2.655  0.00  0.00    +0.000 C 
ATOM      7  C   UNL     1      -0.985   7.792  -0.868  0.00  0.00    +0.000 C 
ATOM      8  C   UNL     1      -1.169   6.725  -3.453  0.00  0.00    +0.000 A 
ATOM      9  C   UNL     1      -2.348   7.790  -1.553  0.00  0.00    +0.000 C 
ATOM     10  C   UNL     1       0.325   5.696  -0.295  0.00  0.00    +0.000 C 
ATOM     11  C   UNL     1      -3.128   7.584  -3.971  0.00  0.00    +0.000 A 
ENDROOT
BRANCH  11  15
ATOM     12  F   UNL     1      -4.676   8.770  -2.626  0.00  0.00    +0.000 F 
ATOM     13  F   UNL     1      -5.477   7.523  -4.213  0.00  0.00    +0.000 F 
ATOM     14  F   UNL     1      -4.454   9.394  -4.694  0.00  0.00    +0.000 F 
ATOM     15  C   UNL     1      -4.420   8.309  -3.881  0.00  0.00    +0.000 C 
ENDBRANCH  11  15
BRANCH   6  16
ATOM     16  C   UNL     1       1.295   7.204  -3.110  0.00  0.00    +0.000 C 
BRANCH  16  18
ATOM     17  F   UNL     1       1.198   9.331  -4.994  0.00  0.00    +0.000 F 
ATOM     18  C   UNL     1       1.657   7.040  -4.570  0.00  0.00    +0.000 A 
ATOM     19  C   UNL     1       1.553   8.122  -5.454  0.00  0.00    +0.000 A 
ATOM     20  C   UNL     1       2.041   5.795  -5.084  0.00  0.00    +0.000 A 
ATOM     21  C   UNL     1       1.798   7.973  -6.817  0.00  0.00    +0.000 A 
ATOM     22  C   UNL     1       2.279   5.638  -6.453  0.00  0.00    +0.000 A 
ATOM     23  C   UNL     1       2.153   6.723  -7.320  0.00  0.00    +0.000 A 
ENDBRANCH  16  18
ENDBRANCH   6  16
BRANCH  10  24
ATOM     24  C   UNL     1       0.012   5.855   1.185  0.00  0.00    +0.000 C 
BRANCH  24  25
ATOM     25  C   UNL     1      -1.351   5.253   1.571  0.00  0.00    +0.000 C 
BRANCH  25  26
ATOM     26  N   UNL     1      -1.616   5.569   2.985  0.00  0.00    +0.000 NA
ATOM     27  H   UNL     1      -2.513   5.175   3.271  0.00  0.00    +0.000 HD
ATOM     28  H   UNL     1      -1.693   6.576   3.121  0.00  0.00    +0.000 HD
ENDBRANCH  25  26
BRANCH  25  29
ATOM     29  C   UNL     1      -1.375   3.719   1.342  0.00  0.00    +0.000 C 
BRANCH  29  33
ATOM     30  F   UNL     1      -3.906   4.354   0.178  0.00  0.00    +0.000 F 
ATOM     31  F   UNL     1      -3.852   0.339   3.864  0.00  0.00    +0.000 F 
ATOM     32  F   UNL     1      -6.193   1.060   2.640  0.00  0.00    +0.000 F 
ATOM     33  C   UNL     1      -2.671   3.027   1.710  0.00  0.00    +0.000 A 
ATOM     34  C   UNL     1      -3.880   3.373   1.091  0.00  0.00    +0.000 A 
ATOM     35  C   UNL     1      -2.674   1.987   2.654  0.00  0.00    +0.000 A 
ATOM     36  C   UNL     1      -3.864   1.330   2.962  0.00  0.00    +0.000 A 
ATOM     37  C   UNL     1      -5.070   2.719   1.402  0.00  0.00    +0.000 A 
ATOM     38  C   UNL     1      -5.051   1.696   2.339  0.00  0.00    +0.000 A 
ENDBRANCH  29  33
ENDBRANCH  25  29
ENDBRANCH  24  25
ENDBRANCH  10  24
TORSDOF 8
