REMARK  Name = 9977358
REMARK  7 active torsions:
REMARK  status: ('A' for Active; 'I' for Inactive)
REMARK    1  A    between atoms: S_1  and  C_19
REMARK    2  A    between atoms: S_1  and  C_26
REMARK    3  A    between atoms: N_9  and  C_14
REMARK    4  A    between atoms: C_14  and  C_15
REMARK    5  A    between atoms: C_14  and  C_18
REMARK    6  A    between atoms: C_15  and  C_17
REMARK    7  A    between atoms: C_18  and  C_20
REMARK                            x       y       z     vdW  Elec       q    Type
REMARK                         _______ _______ _______ _____ _____    ______ ____
ROOT
ATOM      1  C   UNL     1      -2.416  -1.222  -6.855  0.00  0.00    +0.000 C 
ENDROOT
BRANCH   1   2
ATOM      2  N   UNL     1      -2.298   0.208  -7.215  0.00  0.00    +0.000 NA
ATOM      3  H   UNL     1      -3.140   0.502  -7.712  0.00  0.00    +0.000 HD
ATOM      4  H   UNL     1      -1.535   0.325  -7.883  0.00  0.00    +0.000 HD
ENDBRANCH   1   2
BRANCH   1   5
ATOM      5  C   UNL     1      -1.155  -1.595  -6.047  0.00  0.00    +0.000 C 
BRANCH   5  15
ATOM      6  O   UNL     1      -1.882  -3.887  -6.082  0.00  0.00    +0.000 OA
ATOM      7  N   UNL     1       0.075  -3.472  -4.978  0.00  0.00    +0.000 N 
ATOM      8  N   UNL     1       2.624  -4.539  -4.696  0.00  0.00    +0.000 N 
ATOM      9  N   UNL     1       1.980  -6.568  -4.200  0.00  0.00    +0.000 NA
ATOM     10  N   UNL     1       3.359  -6.543  -4.252  0.00  0.00    +0.000 NA
ATOM     11  C   UNL     1       1.162  -2.596  -4.521  0.00  0.00    +0.000 C 
ATOM     12  C   UNL     1       2.509  -3.132  -5.006  0.00  0.00    +0.000 C 
ATOM     13  C   UNL     1       0.137  -4.868  -4.513  0.00  0.00    +0.000 C 
ATOM     14  C   UNL     1       1.544  -5.356  -4.477  0.00  0.00    +0.000 A 
ATOM     15  C   UNL     1      -1.035  -3.077  -5.715  0.00  0.00    +0.000 C 
ATOM     16  C   UNL     1       3.727  -5.319  -4.555  0.00  0.00    +0.000 A 
BRANCH  16  17
ATOM     17  S   UNL     1       5.339  -4.735  -4.753  0.00  0.00    +0.000 S 
ATOM     18  C   UNL     1       6.277  -6.235  -4.385  0.00  0.00    +0.000 C 
ENDBRANCH  16  17
ENDBRANCH   5  15
ENDBRANCH   1   5
BRANCH   1  19
ATOM     19  C   UNL     1      -3.724  -1.467  -6.058  0.00  0.00    +0.000 C 
BRANCH  19  23
ATOM     20  F   UNL     1      -4.466  -2.573  -8.604  0.00  0.00    +0.000 F 
ATOM     21  F   UNL     1      -8.137   0.633  -6.173  0.00  0.00    +0.000 F 
ATOM     22  F   UNL     1      -8.713  -0.562  -8.569  0.00  0.00    +0.000 F 
ATOM     23  C   UNL     1      -5.025  -1.163  -6.775  0.00  0.00    +0.000 A 
ATOM     24  C   UNL     1      -5.346  -1.764  -8.001  0.00  0.00    +0.000 A 
ATOM     25  C   UNL     1      -5.987  -0.339  -6.167  0.00  0.00    +0.000 A 
ATOM     26  C   UNL     1      -7.223  -0.139  -6.778  0.00  0.00    +0.000 A 
ATOM     27  C   UNL     1      -6.579  -1.558  -8.617  0.00  0.00    +0.000 A 
ATOM     28  C   UNL     1      -7.516  -0.746  -7.994  0.00  0.00    +0.000 A 
ENDBRANCH  19  23
ENDBRANCH   1  19
TORSDOF 6
