REMARK  Name = 17753031
REMARK  6 active torsions:
REMARK  status: ('A' for Active; 'I' for Inactive)
REMARK    1  A    between atoms: N_11  and  C_18
REMARK    2  A    between atoms: C_17  and  C_18
REMARK    3  A    between atoms: C_17  and  C_19
REMARK    4  A    between atoms: C_18  and  C_20
REMARK    5  A    between atoms: C_20  and  C_22
REMARK    6  A    between atoms: C_21  and  C_23
REMARK                            x       y       z     vdW  Elec       q    Type
REMARK                         _______ _______ _______ _____ _____    ______ ____
ROOT
ATOM      1  C   UNL     1       8.726   0.604  -2.287  0.00  0.00    +0.000 C 
ENDROOT
BRANCH   1  11
ATOM      2  O   UNL     1       9.128  -1.528  -3.264  0.00  0.00    +0.000 OA
ATOM      3  N   UNL     1       9.810  -1.321  -1.090  0.00  0.00    +0.000 N 
ATOM      4  N   UNL     1      12.112  -1.630   0.402  0.00  0.00    +0.000 N 
ATOM      5  N   UNL     1      12.549  -3.664  -0.249  0.00  0.00    +0.000 NA
ATOM      6  N   UNL     1      13.609  -3.203   0.499  0.00  0.00    +0.000 NA
ATOM      7  C   UNL     1       9.892  -0.623   0.194  0.00  0.00    +0.000 C 
ATOM      8  C   UNL     1      11.355  -0.406   0.572  0.00  0.00    +0.000 C 
ATOM      9  C   UNL     1      10.370  -2.682  -1.089  0.00  0.00    +0.000 C 
ATOM     10  C   UNL     1      11.666  -2.696  -0.341  0.00  0.00    +0.000 A 
ATOM     11  C   UNL     1       9.222  -0.837  -2.249  0.00  0.00    +0.000 C 
ATOM     12  C   UNL     1      13.362  -1.954   0.857  0.00  0.00    +0.000 A 
BRANCH  12  16
ATOM     13  F   UNL     1      13.710   0.192   1.799  0.00  0.00    +0.000 F 
ATOM     14  F   UNL     1      14.623  -1.502   2.807  0.00  0.00    +0.000 F 
ATOM     15  F   UNL     1      15.421  -0.796   0.899  0.00  0.00    +0.000 F 
ATOM     16  C   UNL     1      14.272  -1.031   1.584  0.00  0.00    +0.000 C 
ENDBRANCH  12  16
ENDBRANCH   1  11
BRANCH   1  17
ATOM     17  C   UNL     1       7.216   0.789  -2.052  0.00  0.00    +0.000 C 
BRANCH  17  18
ATOM     18  N   UNL     1       6.817   0.384  -0.693  0.00  0.00    +0.000 NA
ATOM     19  H   UNL     1       7.144   1.082  -0.026  0.00  0.00    +0.000 HD
ATOM     20  H   UNL     1       5.798   0.410  -0.619  0.00  0.00    +0.000 HD
ENDBRANCH  17  18
BRANCH  17  21
ATOM     21  C   UNL     1       6.367   0.096  -3.147  0.00  0.00    +0.000 C 
BRANCH  21  25
ATOM     22 CL   UNL     1       0.432   1.257  -3.039  0.00  0.00    +0.000 Cl
ATOM     23  F   UNL     1       5.242   2.702  -3.482  0.00  0.00    +0.000 F 
ATOM     24  F   UNL     1       1.740  -1.385  -2.638  0.00  0.00    +0.000 F 
ATOM     25  C   UNL     1       4.883   0.392  -3.082  0.00  0.00    +0.000 A 
ATOM     26  C   UNL     1       4.389   1.691  -3.268  0.00  0.00    +0.000 A 
ATOM     27  C   UNL     1       3.961  -0.642  -2.862  0.00  0.00    +0.000 A 
ATOM     28  C   UNL     1       2.592  -0.371  -2.844  0.00  0.00    +0.000 A 
ATOM     29  C   UNL     1       3.023   1.967  -3.247  0.00  0.00    +0.000 A 
ATOM     30  C   UNL     1       2.121   0.927  -3.040  0.00  0.00    +0.000 A 
ENDBRANCH  21  25
ENDBRANCH  17  21
ENDBRANCH   1  17
TORSDOF 6
