REMARK  Name = 24776690
REMARK  13 active torsions:
REMARK  status: ('A' for Active; 'I' for Inactive)
REMARK    1  A    between atoms: O_11  and  C_31
REMARK    2  A    between atoms: O_11  and  C_32
REMARK    3  A    between atoms: N_17  and  C_25
REMARK    4  A    between atoms: C_18  and  C_22
REMARK    5  A    between atoms: C_22  and  C_27
REMARK    6  A    between atoms: C_23  and  C_24
REMARK    7  A    between atoms: C_24  and  C_25
REMARK    8  A    between atoms: C_25  and  C_28
REMARK    9  A    between atoms: C_26  and  C_29
REMARK   10  A    between atoms: C_28  and  C_30
REMARK   11  A    between atoms: C_32  and  C_35
REMARK   12  A    between atoms: C_32  and  C_36
REMARK   13  A    between atoms: C_32  and  C_37
REMARK                            x       y       z     vdW  Elec       q    Type
REMARK                         _______ _______ _______ _____ _____    ______ ____
ROOT
ATOM      1  C   UNL     1       4.002   6.228  -1.237  0.00  0.00    +0.000 C 
ENDROOT
BRANCH   1  11
ATOM      2  O   UNL     1       5.673   6.738  -2.894  0.00  0.00    +0.000 OA
ATOM      3  N   UNL     1       3.501   6.703  -3.637  0.00  0.00    +0.000 N 
ATOM      4  N   UNL     1       1.470   6.406  -5.551  0.00  0.00    +0.000 N 
ATOM      5  N   UNL     1       2.689   6.882  -7.288  0.00  0.00    +0.000 NA
ATOM      6  N   UNL     1       1.447   6.494  -7.722  0.00  0.00    +0.000 NA
ATOM      7  C   UNL     1       3.881   7.059  -5.038  0.00  0.00    +0.000 C 
ATOM      8  C   UNL     1       2.104   7.004  -3.280  0.00  0.00    +0.000 C 
ATOM      9  C   UNL     1       2.714   6.796  -5.974  0.00  0.00    +0.000 A 
ATOM     10  C   UNL     1       1.118   6.255  -4.162  0.00  0.00    +0.000 C 
ATOM     11  C   UNL     1       4.481   6.590  -2.644  0.00  0.00    +0.000 C 
ATOM     12  C   UNL     1       0.710   6.183  -6.667  0.00  0.00    +0.000 A 
BRANCH  12  16
ATOM     13  F   UNL     1      -1.129   5.388  -5.401  0.00  0.00    +0.000 F 
ATOM     14  F   UNL     1      -1.565   6.599  -7.150  0.00  0.00    +0.000 F 
ATOM     15  F   UNL     1      -0.846   4.548  -7.382  0.00  0.00    +0.000 F 
ATOM     16  C   UNL     1      -0.691   5.684  -6.657  0.00  0.00    +0.000 C 
ENDBRANCH  12  16
BRANCH   7  17
ATOM     17  C   UNL     1       5.159   6.448  -5.638  0.00  0.00    +0.000 C 
BRANCH  17  21
ATOM     18  F   UNL     1       4.040   4.370  -5.248  0.00  0.00    +0.000 F 
ATOM     19  F   UNL     1       6.143   4.509  -4.707  0.00  0.00    +0.000 F 
ATOM     20  F   UNL     1       5.568   4.441  -6.799  0.00  0.00    +0.000 F 
ATOM     21  C   UNL     1       5.215   4.941  -5.591  0.00  0.00    +0.000 C 
ENDBRANCH  17  21
ENDBRANCH   7  17
ENDBRANCH   1  11
BRANCH   1  22
ATOM     22  C   UNL     1       5.121   6.007  -0.201  0.00  0.00    +0.000 C 
BRANCH  22  24
ATOM     23  O   UNL     1       3.088   7.090   1.558  0.00  0.00    +0.000 OA
ATOM     24  N   UNL     1       4.588   5.435   1.053  0.00  0.00    +0.000 N 
ATOM     25  C   UNL     1       3.719   6.095   1.877  0.00  0.00    +0.000 C 
ATOM     26  H   UNL     1       5.105   4.690   1.500  0.00  0.00    +0.000 HD
BRANCH  25  27
ATOM     27  O   UNL     1       3.720   5.512   3.102  0.00  0.00    +0.000 OA
BRANCH  27  28
ATOM     28  C   UNL     1       2.989   6.125   4.202  0.00  0.00    +0.000 C 
ATOM     29  C   UNL     1       1.476   6.070   3.963  0.00  0.00    +0.000 C 
ATOM     30  C   UNL     1       3.314   5.279   5.446  0.00  0.00    +0.000 C 
ATOM     31  C   UNL     1       3.474   7.556   4.474  0.00  0.00    +0.000 C 
ENDBRANCH  27  28
ENDBRANCH  25  27
ENDBRANCH  22  24
BRANCH  22  32
ATOM     32  C   UNL     1       5.915   7.310   0.079  0.00  0.00    +0.000 C 
BRANCH  32  36
ATOM     33  F   UNL     1       8.102   5.505  -0.226  0.00  0.00    +0.000 F 
ATOM     34  F   UNL     1       8.162   8.671   4.203  0.00  0.00    +0.000 F 
ATOM     35  F   UNL     1      10.215   6.924   3.725  0.00  0.00    +0.000 F 
ATOM     36  C   UNL     1       7.037   7.171   1.085  0.00  0.00    +0.000 A 
ATOM     37  C   UNL     1       8.098   6.281   0.865  0.00  0.00    +0.000 A 
ATOM     38  C   UNL     1       7.067   7.979   2.232  0.00  0.00    +0.000 A 
ATOM     39  C   UNL     1       8.139   7.886   3.117  0.00  0.00    +0.000 A 
ATOM     40  C   UNL     1       9.165   6.184   1.751  0.00  0.00    +0.000 A 
ATOM     41  C   UNL     1       9.180   6.997   2.876  0.00  0.00    +0.000 A 
ENDBRANCH  32  36
ENDBRANCH  22  32
ENDBRANCH   1  22
TORSDOF 10
