REMARK  Name = 10157995
REMARK  7 active torsions:
REMARK  status: ('A' for Active; 'I' for Inactive)
REMARK    1  A    between atoms: N_11  and  C_18
REMARK    2  A    between atoms: C_16  and  C_17
REMARK    3  A    between atoms: C_16  and  C_18
REMARK    4  A    between atoms: C_18  and  C_20
REMARK    5  A    between atoms: C_19  and  C_21
REMARK    6  A    between atoms: C_20  and  C_22
REMARK    7  A    between atoms: C_21  and  C_23
REMARK                            x       y       z     vdW  Elec       q    Type
REMARK                         _______ _______ _______ _____ _____    ______ ____
ROOT
ATOM      1  O   UNL     1      -3.995   1.967  -2.157  0.00  0.00    +0.000 OA
ATOM      2  N   UNL     1      -4.706   0.393  -0.648  0.00  0.00    +0.000 N 
ATOM      3  N   UNL     1      -6.639  -1.502   0.011  0.00  0.00    +0.000 N 
ATOM      4  N   UNL     1      -5.950  -1.833   2.052  0.00  0.00    +0.000 NA
ATOM      5  N   UNL     1      -7.074  -2.595   1.841  0.00  0.00    +0.000 NA
ATOM      6  C   UNL     1      -5.298  -0.423  -1.717  0.00  0.00    +0.000 C 
ATOM      7  C   UNL     1      -6.684  -0.922  -1.314  0.00  0.00    +0.000 C 
ATOM      8  C   UNL     1      -4.547  -0.271   0.656  0.00  0.00    +0.000 C 
ATOM      9  C   UNL     1      -5.684  -1.182   0.941  0.00  0.00    +0.000 A 
ATOM     10  C   UNL     1      -4.041   1.569  -0.995  0.00  0.00    +0.000 C 
ATOM     11  C   UNL     1      -7.474  -2.407   0.599  0.00  0.00    +0.000 A 
ENDROOT
BRANCH  10  12
ATOM     12  C   UNL     1      -3.406   2.349   0.148  0.00  0.00    +0.000 C 
BRANCH  12  13
ATOM     13  C   UNL     1      -2.696   3.662  -0.243  0.00  0.00    +0.000 C 
BRANCH  13  14
ATOM     14  N   UNL     1      -2.028   4.177   0.973  0.00  0.00    +0.000 NA
ATOM     15  H   UNL     1      -1.462   3.454   1.412  0.00  0.00    +0.000 HD
ATOM     16  H   UNL     1      -2.722   4.472   1.661  0.00  0.00    +0.000 HD
ENDBRANCH  13  14
BRANCH  13  17
ATOM     17  C   UNL     1      -3.675   4.727  -0.808  0.00  0.00    +0.000 C 
BRANCH  17  20
ATOM     18  F   UNL     1      -0.125   8.133  -1.316  0.00  0.00    +0.000 F 
ATOM     19  F   UNL     1      -1.965   9.942  -2.230  0.00  0.00    +0.000 F 
ATOM     20  C   UNL     1      -3.142   6.089  -1.229  0.00  0.00    +0.000 A 
ATOM     21  C   UNL     1      -1.798   6.478  -1.121  0.00  0.00    +0.000 A 
ATOM     22  C   UNL     1      -4.067   7.027  -1.732  0.00  0.00    +0.000 A 
ATOM     23  C   UNL     1      -1.409   7.774  -1.459  0.00  0.00    +0.000 A 
ATOM     24  C   UNL     1      -3.669   8.322  -2.077  0.00  0.00    +0.000 A 
ATOM     25  C   UNL     1      -2.340   8.691  -1.926  0.00  0.00    +0.000 A 
ENDBRANCH  17  20
ENDBRANCH  13  17
ENDBRANCH  12  13
ENDBRANCH  10  12
BRANCH  11  26
ATOM     26  C   UNL     1      -8.634  -3.066  -0.055  0.00  0.00    +0.000 C 
BRANCH  26  30
ATOM     27  F   UNL     1      -6.932  -4.606  -0.769  0.00  0.00    +0.000 F 
ATOM     28  F   UNL     1      -8.505  -4.089  -2.170  0.00  0.00    +0.000 F 
ATOM     29  F   UNL     1      -8.952  -5.379  -0.472  0.00  0.00    +0.000 F 
ATOM     30  C   UNL     1      -8.242  -4.295  -0.854  0.00  0.00    +0.000 C 
ENDBRANCH  26  30
ENDBRANCH  11  26
TORSDOF 7
