REMARK  Name = 9981241
REMARK  9 active torsions:
REMARK  status: ('A' for Active; 'I' for Inactive)
REMARK    1  A    between atoms: O_7  and  C_18
REMARK    2  A    between atoms: O_7  and  C_26
REMARK    3  A    between atoms: N_13  and  C_21
REMARK    4  A    between atoms: C_14  and  C_18
REMARK    5  A    between atoms: C_19  and  C_20
REMARK    6  A    between atoms: C_20  and  C_21
REMARK    7  A    between atoms: C_21  and  C_22
REMARK    8  A    between atoms: C_22  and  C_24
REMARK    9  A    between atoms: C_23  and  C_25
REMARK                            x       y       z     vdW  Elec       q    Type
REMARK                         _______ _______ _______ _____ _____    ______ ____
ROOT
ATOM      1  O   UNL     1       4.510  -2.661   4.694  0.00  0.00    +0.000 OA
ATOM      2  N   UNL     1       4.275  -4.929   4.444  0.00  0.00    +0.000 N 
ATOM      3  N   UNL     1       4.975  -6.596   2.380  0.00  0.00    +0.000 N 
ATOM      4  N   UNL     1       3.802  -5.634   0.820  0.00  0.00    +0.000 NA
ATOM      5  N   UNL     1       5.335  -7.272   1.281  0.00  0.00    +0.000 NA
ATOM      6  C   UNL     1       3.479  -4.756   3.193  0.00  0.00    +0.000 C 
ATOM      7  C   UNL     1       4.648  -6.312   4.774  0.00  0.00    +0.000 C 
ATOM      8  C   UNL     1       4.066  -5.618   2.111  0.00  0.00    +0.000 A 
ATOM      9  C   UNL     1       5.545  -6.883   3.679  0.00  0.00    +0.000 C 
ATOM     10  C   UNL     1       4.716  -3.793   5.126  0.00  0.00    +0.000 C 
ATOM     11  C   UNL     1       4.607  -6.656   0.322  0.00  0.00    +0.000 A 
ENDROOT
BRANCH  11  15
ATOM     12  F   UNL     1       3.839  -6.265  -1.918  0.00  0.00    +0.000 F 
ATOM     13  F   UNL     1       4.255  -8.328  -1.352  0.00  0.00    +0.000 F 
ATOM     14  F   UNL     1       5.900  -6.928  -1.672  0.00  0.00    +0.000 F 
ATOM     15  C   UNL     1       4.649  -7.040  -1.144  0.00  0.00    +0.000 C 
ENDBRANCH  11  15
BRANCH   6  16
ATOM     16  C   UNL     1       1.984  -5.124   3.383  0.00  0.00    +0.000 C 
BRANCH  16  17
ATOM     17  O   UNL     1       1.364  -4.444   4.478  0.00  0.00    +0.000 OA
ATOM     18  C   UNL     1       1.031  -3.096   4.170  0.00  0.00    +0.000 C 
ENDBRANCH  16  17
ENDBRANCH   6  16
BRANCH  10  19
ATOM     19  C   UNL     1       5.485  -4.008   6.430  0.00  0.00    +0.000 C 
BRANCH  19  20
ATOM     20  C   UNL     1       6.039  -2.723   7.089  0.00  0.00    +0.000 C 
BRANCH  20  21
ATOM     21  N   UNL     1       6.901  -3.086   8.235  0.00  0.00    +0.000 NA
ATOM     22  H   UNL     1       7.878  -2.895   8.018  0.00  0.00    +0.000 HD
ATOM     23  H   UNL     1       6.830  -4.072   8.476  0.00  0.00    +0.000 HD
ENDBRANCH  20  21
BRANCH  20  24
ATOM     24  C   UNL     1       4.947  -1.744   7.593  0.00  0.00    +0.000 C 
BRANCH  24  28
ATOM     25  F   UNL     1       4.503  -1.039  10.325  0.00  0.00    +0.000 F 
ATOM     26  F   UNL     1       7.546   2.411   7.407  0.00  0.00    +0.000 F 
ATOM     27  F   UNL     1       7.026   2.920  10.046  0.00  0.00    +0.000 F 
ATOM     28  C   UNL     1       5.501  -0.485   8.240  0.00  0.00    +0.000 A 
ATOM     29  C   UNL     1       5.251  -0.203   9.591  0.00  0.00    +0.000 A 
ATOM     30  C   UNL     1       6.281   0.422   7.504  0.00  0.00    +0.000 A 
ATOM     31  C   UNL     1       6.793   1.564   8.121  0.00  0.00    +0.000 A 
ATOM     32  C   UNL     1       5.758   0.940  10.206  0.00  0.00    +0.000 A 
ATOM     33  C   UNL     1       6.532   1.819   9.461  0.00  0.00    +0.000 A 
ENDBRANCH  24  28
ENDBRANCH  20  24
ENDBRANCH  19  20
ENDBRANCH  10  19
TORSDOF 8
