REMARK  Name = 24776814
REMARK  10 active torsions:
REMARK  status: ('A' for Active; 'I' for Inactive)
REMARK    1  A    between atoms: N_18  and  C_28
REMARK    2  A    between atoms: C_19  and  C_23
REMARK    3  A    between atoms: C_23  and  C_27
REMARK    4  A    between atoms: C_24  and  C_25
REMARK    5  A    between atoms: C_25  and  C_28
REMARK    6  A    between atoms: C_26  and  C_32
REMARK    7  A    between atoms: C_28  and  C_29
REMARK    8  A    between atoms: C_29  and  C_35
REMARK    9  A    between atoms: C_33  and  C_38
REMARK   10  A    between atoms: C_34  and  C_37
REMARK                            x       y       z     vdW  Elec       q    Type
REMARK                         _______ _______ _______ _____ _____    ______ ____
ROOT
ATOM      1  O   UNL     1       6.468   2.390   4.679  0.00  0.00    +0.000 OA
ATOM      2  N   UNL     1       4.538   1.194   4.381  0.00  0.00    +0.000 N 
ATOM      3  N   UNL     1       1.880   0.872   3.517  0.00  0.00    +0.000 N 
ATOM      4  N   UNL     1       1.375   2.987   3.460  0.00  0.00    +0.000 NA
ATOM      5  N   UNL     1       0.322   2.269   2.943  0.00  0.00    +0.000 NA
ATOM      6  C   UNL     1       3.766   2.457   4.151  0.00  0.00    +0.000 C 
ATOM      7  C   UNL     1       3.761   0.020   4.803  0.00  0.00    +0.000 C 
ATOM      8  C   UNL     1       2.344   2.141   3.744  0.00  0.00    +0.000 A 
ATOM      9  C   UNL     1       2.647  -0.310   3.821  0.00  0.00    +0.000 C 
ATOM     10  C   UNL     1       5.897   1.301   4.675  0.00  0.00    +0.000 C 
ATOM     11  C   UNL     1       0.644   0.989   2.940  0.00  0.00    +0.000 A 
ENDROOT
BRANCH  11  15
ATOM     12  F   UNL     1       0.493  -1.344   2.543  0.00  0.00    +0.000 F 
ATOM     13  F   UNL     1      -0.400  -0.018   1.075  0.00  0.00    +0.000 F 
ATOM     14  F   UNL     1      -1.343  -0.287   3.028  0.00  0.00    +0.000 F 
ATOM     15  C   UNL     1      -0.147  -0.148   2.401  0.00  0.00    +0.000 C 
ENDBRANCH  11  15
BRANCH   6  16
ATOM     16  C   UNL     1       4.377   3.451   3.112  0.00  0.00    +0.000 C 
BRANCH  16  17
ATOM     17  C   UNL     1       4.549   2.878   1.720  0.00  0.00    +0.000 A 
ATOM     18  C   UNL     1       3.499   2.977   0.799  0.00  0.00    +0.000 A 
ATOM     19  C   UNL     1       5.731   2.231   1.340  0.00  0.00    +0.000 A 
ATOM     20  C   UNL     1       3.593   2.397  -0.471  0.00  0.00    +0.000 A 
ATOM     21  C   UNL     1       5.860   1.655   0.068  0.00  0.00    +0.000 A 
ATOM     22  C   UNL     1       4.775   1.727  -0.823  0.00  0.00    +0.000 A 
BRANCH  21  26
ATOM     23  F   UNL     1       8.113   1.003   0.607  0.00  0.00    +0.000 F 
ATOM     24  F   UNL     1       6.956  -0.341  -0.646  0.00  0.00    +0.000 F 
ATOM     25  F   UNL     1       7.693   1.537  -1.461  0.00  0.00    +0.000 F 
ATOM     26  C   UNL     1       7.144   0.975  -0.350  0.00  0.00    +0.000 C 
ENDBRANCH  21  26
BRANCH  20  30
ATOM     27  F   UNL     1       1.397   3.239  -0.986  0.00  0.00    +0.000 F 
ATOM     28  F   UNL     1       2.796   3.014  -2.635  0.00  0.00    +0.000 F 
ATOM     29  F   UNL     1       1.912   1.255  -1.711  0.00  0.00    +0.000 F 
ATOM     30  C   UNL     1       2.435   2.481  -1.437  0.00  0.00    +0.000 C 
ENDBRANCH  20  30
ENDBRANCH  16  17
ENDBRANCH   6  16
BRANCH  10  31
ATOM     31  C   UNL     1       6.675   0.015   4.938  0.00  0.00    +0.000 C 
BRANCH  31  32
ATOM     32  C   UNL     1       8.184   0.263   5.135  0.00  0.00    +0.000 C 
BRANCH  32  33
ATOM     33  N   UNL     1       8.900  -1.023   5.213  0.00  0.00    +0.000 NA
ATOM     34  H   UNL     1       8.657  -1.632   4.435  0.00  0.00    +0.000 HD
ATOM     35  H   UNL     1       8.673  -1.516   6.076  0.00  0.00    +0.000 HD
ENDBRANCH  32  33
BRANCH  32  36
ATOM     36  C   UNL     1       8.456   1.091   6.416  0.00  0.00    +0.000 C 
BRANCH  36  40
ATOM     37  F   UNL     1       9.801   0.387   8.803  0.00  0.00    +0.000 F 
ATOM     38  F   UNL     1      12.685   3.183   5.122  0.00  0.00    +0.000 F 
ATOM     39  F   UNL     1      13.807   2.488   7.520  0.00  0.00    +0.000 F 
ATOM     40  C   UNL     1       9.906   1.422   6.670  0.00  0.00    +0.000 A 
ATOM     41  C   UNL     1      10.503   1.067   7.884  0.00  0.00    +0.000 A 
ATOM     42  C   UNL     1      10.659   2.144   5.732  0.00  0.00    +0.000 A 
ATOM     43  C   UNL     1      11.976   2.489   6.021  0.00  0.00    +0.000 A 
ATOM     44  C   UNL     1      11.816   1.417   8.178  0.00  0.00    +0.000 A 
ATOM     45  C   UNL     1      12.546   2.132   7.238  0.00  0.00    +0.000 A 
ENDBRANCH  36  40
ENDBRANCH  32  36
ENDBRANCH  31  32
ENDBRANCH  10  31
TORSDOF 10
