REMARK  Name = 20628271
REMARK  6 active torsions:
REMARK  status: ('A' for Active; 'I' for Inactive)
REMARK    1  A    between atoms: N_11  and  C_18
REMARK    2  A    between atoms: C_17  and  C_18
REMARK    3  A    between atoms: C_17  and  C_19
REMARK    4  A    between atoms: C_18  and  C_20
REMARK    5  A    between atoms: C_20  and  C_22
REMARK    6  A    between atoms: C_21  and  C_23
REMARK                            x       y       z     vdW  Elec       q    Type
REMARK                         _______ _______ _______ _____ _____    ______ ____
ROOT
ATOM      1  C   UNL     1       8.781   0.464  -2.325  0.00  0.00    +0.000 C 
ENDROOT
BRANCH   1  11
ATOM      2  O   UNL     1       9.170  -1.681  -3.282  0.00  0.00    +0.000 OA
ATOM      3  N   UNL     1       9.862  -1.453  -1.113  0.00  0.00    +0.000 N 
ATOM      4  N   UNL     1      12.152  -1.772   0.395  0.00  0.00    +0.000 N 
ATOM      5  N   UNL     1      12.569  -3.820  -0.228  0.00  0.00    +0.000 NA
ATOM      6  N   UNL     1      13.628  -3.364   0.524  0.00  0.00    +0.000 NA
ATOM      7  C   UNL     1       9.945  -0.744   0.165  0.00  0.00    +0.000 C 
ATOM      8  C   UNL     1      11.410  -0.539   0.546  0.00  0.00    +0.000 C 
ATOM      9  C   UNL     1      10.409  -2.819  -1.098  0.00  0.00    +0.000 C 
ATOM     10  C   UNL     1      11.699  -2.841  -0.338  0.00  0.00    +0.000 A 
ATOM     11  C   UNL     1       9.271  -0.979  -2.273  0.00  0.00    +0.000 C 
ATOM     12  C   UNL     1      13.395  -2.107   0.864  0.00  0.00    +0.000 A 
BRANCH  12  16
ATOM     13  F   UNL     1      13.762   0.045   1.783  0.00  0.00    +0.000 F 
ATOM     14  F   UNL     1      14.642  -1.648   2.823  0.00  0.00    +0.000 F 
ATOM     15  F   UNL     1      15.468  -0.976   0.914  0.00  0.00    +0.000 F 
ATOM     16  C   UNL     1      14.310  -1.188   1.590  0.00  0.00    +0.000 C 
ENDBRANCH  12  16
ENDBRANCH   1  11
BRANCH   1  17
ATOM     17  C   UNL     1       7.273   0.657  -2.085  0.00  0.00    +0.000 C 
BRANCH  17  18
ATOM     18  N   UNL     1       6.876   0.251  -0.726  0.00  0.00    +0.000 NA
ATOM     19  H   UNL     1       7.196   0.955  -0.061  0.00  0.00    +0.000 HD
ATOM     20  H   UNL     1       5.857   0.269  -0.653  0.00  0.00    +0.000 HD
ENDBRANCH  17  18
BRANCH  17  21
ATOM     21  C   UNL     1       6.419  -0.031  -3.179  0.00  0.00    +0.000 C 
BRANCH  21  25
ATOM     22 BR   UNL     1       0.320   1.170  -3.059  0.00  0.00    +0.000 Br
ATOM     23  F   UNL     1       5.297   2.578  -3.512  0.00  0.00    +0.000 F 
ATOM     24  F   UNL     1       1.792  -1.505  -2.653  0.00  0.00    +0.000 F 
ATOM     25  C   UNL     1       4.935   0.268  -3.108  0.00  0.00    +0.000 A 
ATOM     26  C   UNL     1       4.444   1.567  -3.296  0.00  0.00    +0.000 A 
ATOM     27  C   UNL     1       4.013  -0.764  -2.884  0.00  0.00    +0.000 A 
ATOM     28  C   UNL     1       2.645  -0.492  -2.863  0.00  0.00    +0.000 A 
ATOM     29  C   UNL     1       3.078   1.845  -3.271  0.00  0.00    +0.000 A 
ATOM     30  C   UNL     1       2.175   0.805  -3.060  0.00  0.00    +0.000 A 
ENDBRANCH  21  25
ENDBRANCH  17  21
ENDBRANCH   1  17
TORSDOF 6
