REMARK  Name = 10093404
REMARK  8 active torsions:
REMARK  status: ('A' for Active; 'I' for Inactive)
REMARK    1  A    between atoms: N_11  and  C_20
REMARK    2  A    between atoms: C_12  and  C_17
REMARK    3  A    between atoms: C_13  and  C_18
REMARK    4  A    between atoms: C_16  and  C_19
REMARK    5  A    between atoms: C_19  and  C_20
REMARK    6  A    between atoms: C_20  and  C_22
REMARK    7  A    between atoms: C_21  and  C_24
REMARK    8  A    between atoms: C_22  and  C_23
REMARK                            x       y       z     vdW  Elec       q    Type
REMARK                         _______ _______ _______ _____ _____    ______ ____
ROOT
ATOM      1  O   UNL     1       4.235  -1.070   5.591  0.00  0.00    +0.000 OA
ATOM      2  N   UNL     1       3.842  -3.297   5.133  0.00  0.00    +0.000 N 
ATOM      3  N   UNL     1       3.977  -5.170   3.123  0.00  0.00    +0.000 N 
ATOM      4  N   UNL     1       4.129  -5.908   2.011  0.00  0.00    +0.000 NA
ATOM      5  N   UNL     1       2.798  -4.085   1.651  0.00  0.00    +0.000 NA
ATOM      6  C   UNL     1       4.584  -5.550   4.387  0.00  0.00    +0.000 C 
ATOM      7  C   UNL     1       2.911  -3.058   3.990  0.00  0.00    +0.000 C 
ATOM      8  C   UNL     1       3.965  -4.716   5.514  0.00  0.00    +0.000 C 
ATOM      9  C   UNL     1       3.217  -4.058   2.898  0.00  0.00    +0.000 A 
ATOM     10  C   UNL     1       4.398  -2.258   5.874  0.00  0.00    +0.000 C 
ATOM     11  C   UNL     1       4.450  -7.046   4.686  0.00  0.00    +0.000 C 
ATOM     12  C   UNL     1       2.845  -1.651   3.396  0.00  0.00    +0.000 C 
ATOM     13  C   UNL     1       3.379  -5.229   1.125  0.00  0.00    +0.000 A 
ENDROOT
BRANCH  13  16
ATOM     14  F   UNL     1       4.340  -5.771  -0.984  0.00  0.00    +0.000 F 
ATOM     15  F   UNL     1       2.575  -6.894  -0.368  0.00  0.00    +0.000 F 
ATOM     16  C   UNL     1       3.165  -5.667  -0.296  0.00  0.00    +0.000 C 
ENDBRANCH  13  16
BRANCH  10  17
ATOM     17  C   UNL     1       5.280  -2.630   7.063  0.00  0.00    +0.000 C 
BRANCH  17  18
ATOM     18  C   UNL     1       5.858  -1.409   7.812  0.00  0.00    +0.000 C 
BRANCH  18  19
ATOM     19  N   UNL     1       6.834  -1.886   8.812  0.00  0.00    +0.000 NA
ATOM     20  H   UNL     1       7.487  -1.128   9.020  0.00  0.00    +0.000 HD
ATOM     21  H   UNL     1       7.399  -2.650   8.447  0.00  0.00    +0.000 HD
ENDBRANCH  18  19
BRANCH  18  22
ATOM     22  C   UNL     1       4.745  -0.591   8.518  0.00  0.00    +0.000 C 
BRANCH  22  26
ATOM     23  F   UNL     1       4.300  -0.234  11.302  0.00  0.00    +0.000 F 
ATOM     24  F   UNL     1       7.029   3.734   8.753  0.00  0.00    +0.000 F 
ATOM     25  F   UNL     1       6.510   3.912  11.434  0.00  0.00    +0.000 F 
ATOM     26  C   UNL     1       5.237   0.613   9.290  0.00  0.00    +0.000 A 
ATOM     27  C   UNL     1       4.979   0.729  10.663  0.00  0.00    +0.000 A 
ATOM     28  C   UNL     1       5.927   1.651   8.647  0.00  0.00    +0.000 A 
ATOM     29  C   UNL     1       6.358   2.754   9.375  0.00  0.00    +0.000 A 
ATOM     30  C   UNL     1       5.403   1.837  11.390  0.00  0.00    +0.000 A 
ATOM     31  C   UNL     1       6.097   2.844  10.740  0.00  0.00    +0.000 A 
ENDBRANCH  22  26
ENDBRANCH  18  22
ENDBRANCH  17  18
ENDBRANCH  10  17
TORSDOF 6
