REMARK  Name = 24777440
REMARK  8 active torsions:
REMARK  status: ('A' for Active; 'I' for Inactive)
REMARK    1  A    between atoms: N_12  and  C_22
REMARK    2  A    between atoms: C_13  and  C_18
REMARK    3  A    between atoms: C_14  and  C_19
REMARK    4  A    between atoms: C_17  and  C_21
REMARK    5  A    between atoms: C_20  and  C_24
REMARK    6  A    between atoms: C_21  and  C_22
REMARK    7  A    between atoms: C_22  and  C_23
REMARK    8  A    between atoms: C_23  and  C_25
REMARK                            x       y       z     vdW  Elec       q    Type
REMARK                         _______ _______ _______ _____ _____    ______ ____
ROOT
ATOM      1  O   UNL     1       0.817   4.128  -1.022  0.00  0.00    +0.000 OA
ATOM      2  N   UNL     1      -0.327   6.026  -1.663  0.00  0.00    +0.000 N 
ATOM      3  N   UNL     1      -2.544   6.795  -3.163  0.00  0.00    +0.000 N 
ATOM      4  N   UNL     1      -1.767   6.163  -5.100  0.00  0.00    +0.000 NA
ATOM      5  N   UNL     1      -3.045   6.640  -5.273  0.00  0.00    +0.000 NA
ATOM      6  C   UNL     1      -2.547   7.066  -1.736  0.00  0.00    +0.000 C 
ATOM      7  C   UNL     1      -0.166   5.858  -3.139  0.00  0.00    +0.000 C 
ATOM      8  C   UNL     1      -1.095   7.221  -1.278  0.00  0.00    +0.000 C 
ATOM      9  C   UNL     1      -1.465   6.250  -3.822  0.00  0.00    +0.000 A 
ATOM     10  C   UNL     1       0.236   5.168  -0.724  0.00  0.00    +0.000 C 
ATOM     11  C   UNL     1      -3.270   5.954  -0.971  0.00  0.00    +0.000 C 
ATOM     12  C   UNL     1       0.290   4.506  -3.700  0.00  0.00    +0.000 C 
ATOM     13  C   UNL     1      -3.516   7.031  -4.101  0.00  0.00    +0.000 A 
ENDROOT
BRANCH  13  17
ATOM     14  F   UNL     1      -5.006   8.024  -2.536  0.00  0.00    +0.000 F 
ATOM     15  F   UNL     1      -5.863   6.742  -4.066  0.00  0.00    +0.000 F 
ATOM     16  F   UNL     1      -5.094   8.720  -4.589  0.00  0.00    +0.000 F 
ATOM     17  C   UNL     1      -4.854   7.622  -3.830  0.00  0.00    +0.000 C 
ENDBRANCH  13  17
BRANCH  10  18
ATOM     18  C   UNL     1       0.066   5.544   0.746  0.00  0.00    +0.000 C 
BRANCH  18  19
ATOM     19  C   UNL     1       0.803   4.592   1.697  0.00  0.00    +0.000 C 
BRANCH  19  20
ATOM     20  N   UNL     1       0.398   4.918   3.079  0.00  0.00    +0.000 NA
ATOM     21  H   UNL     1       0.866   4.281   3.726  0.00  0.00    +0.000 HD
ATOM     22  H   UNL     1      -0.600   4.745   3.200  0.00  0.00    +0.000 HD
ENDBRANCH  19  20
BRANCH  19  23
ATOM     23  C   UNL     1       2.337   4.730   1.529  0.00  0.00    +0.000 C 
BRANCH  23  27
ATOM     24  F   UNL     1       4.249   5.610   3.435  0.00  0.00    +0.000 F 
ATOM     25  F   UNL     1       3.591   0.222   2.949  0.00  0.00    +0.000 F 
ATOM     26  F   UNL     1       5.378   1.241   4.751  0.00  0.00    +0.000 F 
ATOM     27  C   UNL     1       3.142   3.788   2.389  0.00  0.00    +0.000 A 
ATOM     28  C   UNL     1       4.070   4.284   3.311  0.00  0.00    +0.000 A 
ATOM     29  C   UNL     1       2.992   2.392   2.262  0.00  0.00    +0.000 A 
ATOM     30  C   UNL     1       3.749   1.548   3.066  0.00  0.00    +0.000 A 
ATOM     31  C   UNL     1       4.827   3.438   4.110  0.00  0.00    +0.000 A 
ATOM     32  C   UNL     1       4.657   2.063   3.984  0.00  0.00    +0.000 A 
ENDBRANCH  23  27
ENDBRANCH  19  23
ENDBRANCH  18  19
ENDBRANCH  10  18
TORSDOF 6
