REMARK  Name = 10455620
REMARK  8 active torsions:
REMARK  status: ('A' for Active; 'I' for Inactive)
REMARK    1  A    between atoms: N_12  and  C_22
REMARK    2  A    between atoms: C_13  and  C_17
REMARK    3  A    between atoms: C_13  and  C_18
REMARK    4  A    between atoms: C_19  and  C_20
REMARK    5  A    between atoms: C_20  and  C_22
REMARK    6  A    between atoms: C_21  and  C_24
REMARK    7  A    between atoms: C_22  and  C_23
REMARK    8  A    between atoms: C_23  and  C_25
REMARK                            x       y       z     vdW  Elec       q    Type
REMARK                         _______ _______ _______ _____ _____    ______ ____
ROOT
ATOM      1  O   UNL     1       4.709   6.995   0.005  0.00  0.00    +0.000 OA
ATOM      2  N   UNL     1       3.808   7.835  -1.947  0.00  0.00    +0.000 N 
ATOM      3  N   UNL     1       4.060   8.657  -4.604  0.00  0.00    +0.000 N 
ATOM      4  N   UNL     1       5.947   9.708  -4.377  0.00  0.00    +0.000 NA
ATOM      5  N   UNL     1       5.625   9.677  -5.714  0.00  0.00    +0.000 NA
ATOM      6  C   UNL     1       4.954   8.789  -2.210  0.00  0.00    +0.000 C 
ATOM      7  C   UNL     1       2.596   8.063  -2.748  0.00  0.00    +0.000 C 
ATOM      8  C   UNL     1       5.016   9.063  -3.707  0.00  0.00    +0.000 A 
ATOM      9  C   UNL     1       2.869   7.939  -4.235  0.00  0.00    +0.000 C 
ATOM     10  C   UNL     1       4.704  10.123  -1.473  0.00  0.00    +0.000 C 
ATOM     11  C   UNL     1       6.341   8.254  -1.785  0.00  0.00    +0.000 C 
ATOM     12  C   UNL     1       3.786   7.033  -0.802  0.00  0.00    +0.000 C 
ATOM     13  C   UNL     1       4.486   9.022  -5.852  0.00  0.00    +0.000 A 
ENDROOT
BRANCH  13  17
ATOM     14  F   UNL     1       2.667   7.935  -6.918  0.00  0.00    +0.000 F 
ATOM     15  F   UNL     1       4.541   8.044  -8.008  0.00  0.00    +0.000 F 
ATOM     16  F   UNL     1       3.319   9.837  -7.738  0.00  0.00    +0.000 F 
ATOM     17  C   UNL     1       3.768   8.716  -7.118  0.00  0.00    +0.000 C 
ENDBRANCH  13  17
BRANCH  12  18
ATOM     18  C   UNL     1       2.558   6.141  -0.596  0.00  0.00    +0.000 C 
BRANCH  18  19
ATOM     19  C   UNL     1       2.610   5.296   0.690  0.00  0.00    +0.000 C 
BRANCH  19  20
ATOM     20  N   UNL     1       1.450   4.377   0.664  0.00  0.00    +0.000 NA
ATOM     21  H   UNL     1       0.626   4.851   1.038  0.00  0.00    +0.000 HD
ATOM     22  H   UNL     1       1.623   3.606   1.312  0.00  0.00    +0.000 HD
ENDBRANCH  19  20
BRANCH  19  23
ATOM     23  C   UNL     1       2.587   6.188   1.955  0.00  0.00    +0.000 C 
BRANCH  23  27
ATOM     24  F   UNL     1       0.511   6.327   3.881  0.00  0.00    +0.000 F 
ATOM     25  F   UNL     1       4.852   3.311   5.198  0.00  0.00    +0.000 F 
ATOM     26  F   UNL     1       2.799   3.633   6.982  0.00  0.00    +0.000 F 
ATOM     27  C   UNL     1       2.625   5.443   3.268  0.00  0.00    +0.000 A 
ATOM     28  C   UNL     1       1.581   5.583   4.192  0.00  0.00    +0.000 A 
ATOM     29  C   UNL     1       3.736   4.661   3.619  0.00  0.00    +0.000 A 
ATOM     30  C   UNL     1       3.783   4.048   4.869  0.00  0.00    +0.000 A 
ATOM     31  C   UNL     1       1.630   4.975   5.441  0.00  0.00    +0.000 A 
ATOM     32  C   UNL     1       2.740   4.209   5.772  0.00  0.00    +0.000 A 
ENDBRANCH  23  27
ENDBRANCH  19  23
ENDBRANCH  18  19
ENDBRANCH  12  18
TORSDOF 6
