REMARK  Name = 10237713
REMARK  7 active torsions:
REMARK  status: ('A' for Active; 'I' for Inactive)
REMARK    1  A    between atoms: N_11  and  C_19
REMARK    2  A    between atoms: C_12  and  C_17
REMARK    3  A    between atoms: C_16  and  C_18
REMARK    4  A    between atoms: C_18  and  C_19
REMARK    5  A    between atoms: C_19  and  C_21
REMARK    6  A    between atoms: C_20  and  C_22
REMARK    7  A    between atoms: C_21  and  C_23
REMARK                            x       y       z     vdW  Elec       q    Type
REMARK                         _______ _______ _______ _____ _____    ______ ____
ROOT
ATOM      1  O   UNL     1       3.388   4.583  -5.929  0.00  0.00    +0.000 OA
ATOM      2  N   UNL     1       4.727   5.207  -4.177  0.00  0.00    +0.000 N 
ATOM      3  N   UNL     1       4.917   7.206  -2.189  0.00  0.00    +0.000 N 
ATOM      4  N   UNL     1       4.139   8.825  -3.414  0.00  0.00    +0.000 NA
ATOM      5  N   UNL     1       4.332   9.297  -2.136  0.00  0.00    +0.000 NA
ATOM      6  C   UNL     1       5.773   5.062  -3.116  0.00  0.00    +0.000 C 
ATOM      7  C   UNL     1       5.364   5.877  -1.865  0.00  0.00    +0.000 C 
ATOM      8  C   UNL     1       4.441   6.607  -4.576  0.00  0.00    +0.000 C 
ATOM      9  C   UNL     1       4.476   7.554  -3.431  0.00  0.00    +0.000 A 
ATOM     10  C   UNL     1       4.246   4.270  -5.100  0.00  0.00    +0.000 C 
ATOM     11  C   UNL     1       6.138   3.676  -2.582  0.00  0.00    +0.000 C 
ATOM     12  C   UNL     1       4.790   8.307  -1.387  0.00  0.00    +0.000 A 
ENDROOT
BRANCH  12  16
ATOM     13  F   UNL     1       5.516   7.144   0.548  0.00  0.00    +0.000 F 
ATOM     14  F   UNL     1       4.051   8.722   0.823  0.00  0.00    +0.000 F 
ATOM     15  F   UNL     1       6.124   9.223   0.336  0.00  0.00    +0.000 F 
ATOM     16  C   UNL     1       5.116   8.353   0.066  0.00  0.00    +0.000 C 
ENDBRANCH  12  16
BRANCH  10  17
ATOM     17  C   UNL     1       4.787   2.855  -5.091  0.00  0.00    +0.000 C 
BRANCH  17  18
ATOM     18  C   UNL     1       4.213   1.917  -6.178  0.00  0.00    +0.000 C 
BRANCH  18  19
ATOM     19  N   UNL     1       4.741   0.574  -5.852  0.00  0.00    +0.000 NA
ATOM     20  H   UNL     1       4.947   0.049  -6.701  0.00  0.00    +0.000 HD
ATOM     21  H   UNL     1       4.023   0.038  -5.364  0.00  0.00    +0.000 HD
ENDBRANCH  18  19
BRANCH  18  22
ATOM     22  C   UNL     1       4.601   2.364  -7.612  0.00  0.00    +0.000 C 
BRANCH  22  25
ATOM     23  F   UNL     1       6.175   0.319  -8.785  0.00  0.00    +0.000 F 
ATOM     24  F   UNL     1       1.209   1.013 -10.890  0.00  0.00    +0.000 F 
ATOM     25  C   UNL     1       4.108   1.477  -8.737  0.00  0.00    +0.000 A 
ATOM     26  C   UNL     1       4.950   0.505  -9.295  0.00  0.00    +0.000 A 
ATOM     27  C   UNL     1       2.825   1.630  -9.281  0.00  0.00    +0.000 A 
ATOM     28  C   UNL     1       2.428   0.841 -10.363  0.00  0.00    +0.000 A 
ATOM     29  C   UNL     1       4.549  -0.286 -10.369  0.00  0.00    +0.000 A 
ATOM     30  C   UNL     1       3.280  -0.111 -10.916  0.00  0.00    +0.000 A 
ENDBRANCH  22  25
ENDBRANCH  18  22
ENDBRANCH  17  18
ENDBRANCH  10  17
TORSDOF 6
