REMARK  Name = 24776586
REMARK  8 active torsions:
REMARK  status: ('A' for Active; 'I' for Inactive)
REMARK    1  A    between atoms: N_15  and  C_24
REMARK    2  A    between atoms: C_16  and  C_20
REMARK    3  A    between atoms: C_20  and  C_25
REMARK    4  A    between atoms: C_21  and  C_22
REMARK    5  A    between atoms: C_22  and  C_24
REMARK    6  A    between atoms: C_23  and  C_27
REMARK    7  A    between atoms: C_24  and  C_26
REMARK    8  A    between atoms: C_26  and  C_28
REMARK                            x       y       z     vdW  Elec       q    Type
REMARK                         _______ _______ _______ _____ _____    ______ ____
ROOT
ATOM      1  O   UNL     1      -2.994  -4.663  -0.430  0.00  0.00    +0.000 OA
ATOM      2  N   UNL     1      -1.578  -4.643   1.371  0.00  0.00    +0.000 N 
ATOM      3  N   UNL     1       0.053  -6.412   2.816  0.00  0.00    +0.000 N 
ATOM      4  N   UNL     1      -1.454  -7.981   3.002  0.00  0.00    +0.000 NA
ATOM      5  N   UNL     1      -0.280  -8.440   3.539  0.00  0.00    +0.000 NA
ATOM      6  C   UNL     1      -2.244  -5.845   1.940  0.00  0.00    +0.000 C 
ATOM      7  C   UNL     1      -0.420  -4.094   2.095  0.00  0.00    +0.000 C 
ATOM      8  C   UNL     1      -1.248  -6.757   2.573  0.00  0.00    +0.000 A 
ATOM      9  C   UNL     1       0.635  -5.160   2.396  0.00  0.00    +0.000 C 
ATOM     10  C   UNL     1      -2.044  -4.144   0.152  0.00  0.00    +0.000 C 
ATOM     11  C   UNL     1       0.635  -7.483   3.433  0.00  0.00    +0.000 A 
ENDROOT
BRANCH  11  15
ATOM     12  F   UNL     1       2.733  -6.415   3.666  0.00  0.00    +0.000 F 
ATOM     13  F   UNL     1       2.113  -7.767   5.251  0.00  0.00    +0.000 F 
ATOM     14  F   UNL     1       2.734  -8.557   3.311  0.00  0.00    +0.000 F 
ATOM     15  C   UNL     1       2.037  -7.559   3.912  0.00  0.00    +0.000 C 
ENDBRANCH  11  15
BRANCH   6  16
ATOM     16  C   UNL     1      -3.444  -5.578   2.860  0.00  0.00    +0.000 C 
BRANCH  16  20
ATOM     17  F   UNL     1      -1.845  -4.744   4.449  0.00  0.00    +0.000 F 
ATOM     18  F   UNL     1      -3.514  -5.908   5.201  0.00  0.00    +0.000 F 
ATOM     19  F   UNL     1      -3.840  -3.896   4.451  0.00  0.00    +0.000 F 
ATOM     20  C   UNL     1      -3.142  -5.036   4.240  0.00  0.00    +0.000 C 
ENDBRANCH  16  20
ENDBRANCH   6  16
BRANCH  10  21
ATOM     21  C   UNL     1      -1.313  -2.933  -0.423  0.00  0.00    +0.000 C 
BRANCH  21  22
ATOM     22  C   UNL     1      -1.777  -2.468  -1.817  0.00  0.00    +0.000 C 
BRANCH  22  23
ATOM     23  N   UNL     1      -0.874  -1.382  -2.252  0.00  0.00    +0.000 NA
ATOM     24  H   UNL     1      -0.884  -1.335  -3.269  0.00  0.00    +0.000 HD
ATOM     25  H   UNL     1       0.090  -1.578  -1.998  0.00  0.00    +0.000 HD
ENDBRANCH  22  23
BRANCH  22  26
ATOM     26  C   UNL     1      -3.237  -1.954  -1.812  0.00  0.00    +0.000 C 
BRANCH  26  30
ATOM     27  F   UNL     1      -3.314  -3.503  -4.225  0.00  0.00    +0.000 F 
ATOM     28  F   UNL     1      -5.329   1.552  -4.502  0.00  0.00    +0.000 F 
ATOM     29  F   UNL     1      -5.342  -0.066  -6.713  0.00  0.00    +0.000 F 
ATOM     30  C   UNL     1      -3.761  -1.439  -3.140  0.00  0.00    +0.000 A 
ATOM     31  C   UNL     1      -3.789  -2.248  -4.283  0.00  0.00    +0.000 A 
ATOM     32  C   UNL     1      -4.290  -0.141  -3.228  0.00  0.00    +0.000 A 
ATOM     33  C   UNL     1      -4.820   0.314  -4.436  0.00  0.00    +0.000 A 
ATOM     34  C   UNL     1      -4.312  -1.794  -5.488  0.00  0.00    +0.000 A 
ATOM     35  C   UNL     1      -4.829  -0.506  -5.556  0.00  0.00    +0.000 A 
ENDBRANCH  26  30
ENDBRANCH  22  26
ENDBRANCH  21  22
ENDBRANCH  10  21
TORSDOF 8
