REMARK  Name = 20628257
REMARK  5 active torsions:
REMARK  status: ('A' for Active; 'I' for Inactive)
REMARK    1  A    between atoms: N_6  and  C_12
REMARK    2  A    between atoms: C_12  and  C_13
REMARK    3  A    between atoms: C_12  and  C_16
REMARK    4  A    between atoms: C_13  and  C_15
REMARK    5  A    between atoms: C_16  and  C_18
REMARK                            x       y       z     vdW  Elec       q    Type
REMARK                         _______ _______ _______ _____ _____    ______ ____
ROOT
ATOM      1  C   UNL     1      -4.165  -0.948   1.275  0.00  0.00    +0.000 C 
ENDROOT
BRANCH   1   2
ATOM      2  N   UNL     1      -4.699   0.428   1.372  0.00  0.00    +0.000 NA
ATOM      3  H   UNL     1      -5.245   0.536   2.226  0.00  0.00    +0.000 HD
ATOM      4  H   UNL     1      -3.925   1.091   1.448  0.00  0.00    +0.000 HD
ENDBRANCH   1   2
BRANCH   1   5
ATOM      5  C   UNL     1      -5.387  -1.885   1.189  0.00  0.00    +0.000 C 
BRANCH   5  15
ATOM      6  O   UNL     1      -3.965  -3.830   1.248  0.00  0.00    +0.000 OA
ATOM      7  N   UNL     1      -6.226  -4.217   1.317  0.00  0.00    +0.000 N 
ATOM      8  N   UNL     1      -8.186  -5.844   0.243  0.00  0.00    +0.000 N 
ATOM      9  N   UNL     1      -9.832  -4.437   0.500  0.00  0.00    +0.000 NA
ATOM     10  N   UNL     1     -10.289  -5.529  -0.207  0.00  0.00    +0.000 NA
ATOM     11  C   UNL     1      -6.049  -5.674   1.415  0.00  0.00    +0.000 C 
ATOM     12  C   UNL     1      -7.611  -3.742   1.480  0.00  0.00    +0.000 C 
ATOM     13  C   UNL     1      -6.851  -6.391   0.325  0.00  0.00    +0.000 C 
ATOM     14  C   UNL     1      -8.555  -4.631   0.754  0.00  0.00    +0.000 A 
ATOM     15  C   UNL     1      -5.110  -3.382   1.263  0.00  0.00    +0.000 C 
ATOM     16  C   UNL     1      -9.283  -6.360  -0.363  0.00  0.00    +0.000 A 
ENDBRANCH   5  15
ENDBRANCH   1   5
BRANCH   1  17
ATOM     17  C   UNL     1      -3.217  -1.063   0.052  0.00  0.00    +0.000 C 
BRANCH  17  20
ATOM     18  F   UNL     1       0.939   0.821   1.870  0.00  0.00    +0.000 F 
ATOM     19  F   UNL     1       1.092   2.608  -0.198  0.00  0.00    +0.000 F 
ATOM     20  C   UNL     1      -2.069  -0.067   0.016  0.00  0.00    +0.000 A 
ATOM     21  C   UNL     1      -1.066  -0.068   1.001  0.00  0.00    +0.000 A 
ATOM     22  C   UNL     1      -1.980   0.866  -1.033  0.00  0.00    +0.000 A 
ATOM     23  C   UNL     1      -0.009   0.837   0.924  0.00  0.00    +0.000 A 
ATOM     24  C   UNL     1      -0.915   1.768  -1.104  0.00  0.00    +0.000 A 
ATOM     25  C   UNL     1       0.068   1.747  -0.123  0.00  0.00    +0.000 A 
ENDBRANCH  17  20
ENDBRANCH   1  17
TORSDOF 5
