REMARK  Name = 24776588
REMARK  8 active torsions:
REMARK  status: ('A' for Active; 'I' for Inactive)
REMARK    1  A    between atoms: N_12  and  C_20
REMARK    2  A    between atoms: C_13  and  C_17
REMARK    3  A    between atoms: C_17  and  C_23
REMARK    4  A    between atoms: C_18  and  C_19
REMARK    5  A    between atoms: C_19  and  C_20
REMARK    6  A    between atoms: C_20  and  C_22
REMARK    7  A    between atoms: C_21  and  C_24
REMARK    8  A    between atoms: C_22  and  C_25
REMARK                            x       y       z     vdW  Elec       q    Type
REMARK                         _______ _______ _______ _____ _____    ______ ____
ROOT
ATOM      1  O   UNL     1       8.297  -0.203  -4.372  0.00  0.00    +0.000 OA
ATOM      2  N   UNL     1       8.831   0.811  -2.388  0.00  0.00    +0.000 N 
ATOM      3  N   UNL     1       8.349   3.116  -0.895  0.00  0.00    +0.000 N 
ATOM      4  N   UNL     1       8.624   4.516  -2.541  0.00  0.00    +0.000 NA
ATOM      5  N   UNL     1       8.249   5.223  -1.428  0.00  0.00    +0.000 NA
ATOM      6  C   UNL     1       9.158   2.093  -3.080  0.00  0.00    +0.000 C 
ATOM      7  C   UNL     1       9.075   0.780  -0.940  0.00  0.00    +0.000 C 
ATOM      8  C   UNL     1       8.242   1.839  -0.226  0.00  0.00    +0.000 C 
ATOM      9  C   UNL     1       8.715   3.246  -2.212  0.00  0.00    +0.000 A 
ATOM     10  C   UNL     1       8.402  -0.275  -3.150  0.00  0.00    +0.000 C 
ATOM     11  C   UNL     1       8.077   4.375  -0.429  0.00  0.00    +0.000 A 
ENDROOT
BRANCH  11  15
ATOM     12  F   UNL     1       7.492   3.615   1.739  0.00  0.00    +0.000 F 
ATOM     13  F   UNL     1       6.491   5.394   0.999  0.00  0.00    +0.000 F 
ATOM     14  F   UNL     1       8.593   5.482   1.590  0.00  0.00    +0.000 F 
ATOM     15  C   UNL     1       7.666   4.717   0.958  0.00  0.00    +0.000 C 
ENDBRANCH  11  15
BRANCH   6  16
ATOM     16  C   UNL     1      10.675   2.175  -3.405  0.00  0.00    +0.000 C 
BRANCH  16  17
ATOM     17  C   UNL     1      11.113   3.421  -4.135  0.00  0.00    +0.000 C 
ATOM     18  C   UNL     1      11.706   3.439  -5.336  0.00  0.00    +0.000 C 
ENDBRANCH  16  17
ENDBRANCH   6  16
BRANCH  10  19
ATOM     19  C   UNL     1       8.046  -1.553  -2.393  0.00  0.00    +0.000 C 
BRANCH  19  20
ATOM     20  C   UNL     1       7.484  -2.696  -3.267  0.00  0.00    +0.000 C 
BRANCH  20  21
ATOM     21  N   UNL     1       6.963  -3.760  -2.384  0.00  0.00    +0.000 NA
ATOM     22  H   UNL     1       6.487  -3.379  -1.570  0.00  0.00    +0.000 HD
ATOM     23  H   UNL     1       7.721  -4.355  -2.046  0.00  0.00    +0.000 HD
ENDBRANCH  20  21
BRANCH  20  24
ATOM     24  C   UNL     1       8.549  -3.273  -4.235  0.00  0.00    +0.000 C 
BRANCH  24  28
ATOM     25  F   UNL     1       8.944  -5.982  -3.476  0.00  0.00    +0.000 F 
ATOM     26  F   UNL     1       6.362  -5.139  -8.200  0.00  0.00    +0.000 F 
ATOM     27  F   UNL     1       6.833  -7.688  -7.320  0.00  0.00    +0.000 F 
ATOM     28  C   UNL     1       8.078  -4.446  -5.067  0.00  0.00    +0.000 A 
ATOM     29  C   UNL     1       8.304  -5.762  -4.634  0.00  0.00    +0.000 A 
ATOM     30  C   UNL     1       7.405  -4.245  -6.280  0.00  0.00    +0.000 A 
ATOM     31  C   UNL     1       6.990  -5.343  -7.033  0.00  0.00    +0.000 A 
ATOM     32  C   UNL     1       7.884  -6.859  -5.383  0.00  0.00    +0.000 A 
ATOM     33  C   UNL     1       7.229  -6.638  -6.587  0.00  0.00    +0.000 A 
ENDBRANCH  24  28
ENDBRANCH  20  24
ENDBRANCH  19  20
ENDBRANCH  10  19
TORSDOF 8
