REMARK  Name = 24777689
REMARK  12 active torsions:
REMARK  status: ('A' for Active; 'I' for Inactive)
REMARK    1  A    between atoms: O_8  and  C_27
REMARK    2  A    between atoms: O_8  and  C_28
REMARK    3  A    between atoms: N_13  and  C_21
REMARK    4  A    between atoms: C_15  and  C_22
REMARK    5  A    between atoms: C_19  and  C_20
REMARK    6  A    between atoms: C_20  and  C_21
REMARK    7  A    between atoms: C_21  and  C_24
REMARK    8  A    between atoms: C_23  and  C_25
REMARK    9  A    between atoms: C_24  and  C_26
REMARK   10  A    between atoms: C_28  and  C_31
REMARK   11  A    between atoms: C_28  and  C_32
REMARK   12  A    between atoms: C_28  and  C_33
REMARK                            x       y       z     vdW  Elec       q    Type
REMARK                         _______ _______ _______ _____ _____    ______ ____
ROOT
ATOM      1  C   UNL     1       4.847   2.507   6.215  0.00  0.00    +0.000 C 
ENDROOT
BRANCH   1   3
ATOM      2  O   UNL     1       3.705   0.731   8.224  0.00  0.00    +0.000 OA
ATOM      3  N   UNL     1       3.509   1.887   6.251  0.00  0.00    +0.000 N 
ATOM      4  C   UNL     1       3.039   1.105   7.273  0.00  0.00    +0.000 C 
ATOM      5  H   UNL     1       2.779   2.260   5.655  0.00  0.00    +0.000 HD
BRANCH   4   6
ATOM      6  O   UNL     1       1.733   0.801   7.047  0.00  0.00    +0.000 OA
BRANCH   6   7
ATOM      7  C   UNL     1       1.012  -0.141   7.899  0.00  0.00    +0.000 C 
ATOM      8  C   UNL     1       0.861   0.373   9.336  0.00  0.00    +0.000 C 
ATOM      9  C   UNL     1      -0.397  -0.272   7.290  0.00  0.00    +0.000 C 
ATOM     10  C   UNL     1       1.664  -1.529   7.867  0.00  0.00    +0.000 C 
ENDBRANCH   6   7
ENDBRANCH   4   6
ENDBRANCH   1   3
BRANCH   1  11
ATOM     11  C   UNL     1       5.391   2.555   4.765  0.00  0.00    +0.000 C 
BRANCH  11  21
ATOM     12  O   UNL     1       7.510   3.201   5.671  0.00  0.00    +0.000 OA
ATOM     13  N   UNL     1       7.417   3.078   3.374  0.00  0.00    +0.000 N 
ATOM     14  N   UNL     1       8.568   1.990   1.086  0.00  0.00    +0.000 N 
ATOM     15  N   UNL     1      10.601   2.659   1.477  0.00  0.00    +0.000 NA
ATOM     16  N   UNL     1      10.616   1.846   0.367  0.00  0.00    +0.000 NA
ATOM     17  C   UNL     1       8.846   3.468   3.140  0.00  0.00    +0.000 C 
ATOM     18  C   UNL     1       6.620   3.009   2.140  0.00  0.00    +0.000 C 
ATOM     19  C   UNL     1       7.135   1.894   1.236  0.00  0.00    +0.000 C 
ATOM     20  C   UNL     1       9.369   2.717   1.932  0.00  0.00    +0.000 A 
ATOM     21  C   UNL     1       6.859   2.987   4.652  0.00  0.00    +0.000 C 
ATOM     22  C   UNL     1       9.828   3.310   4.305  0.00  0.00    +0.000 C 
ATOM     23  C   UNL     1       9.384   1.422   0.142  0.00  0.00    +0.000 A 
BRANCH  23  27
ATOM     24  F   UNL     1       7.621   0.158  -0.807  0.00  0.00    +0.000 F 
ATOM     25  F   UNL     1       9.621  -0.679  -0.922  0.00  0.00    +0.000 F 
ATOM     26  F   UNL     1       9.073   1.032  -2.166  0.00  0.00    +0.000 F 
ATOM     27  C   UNL     1       8.936   0.492  -0.928  0.00  0.00    +0.000 C 
ENDBRANCH  23  27
ENDBRANCH  11  21
ENDBRANCH   1  11
BRANCH   1  28
ATOM     28  C   UNL     1       4.864   3.885   6.940  0.00  0.00    +0.000 C 
BRANCH  28  32
ATOM     29  F   UNL     1       2.418   3.958   5.298  0.00  0.00    +0.000 F 
ATOM     30  F   UNL     1       4.934   8.705   6.194  0.00  0.00    +0.000 F 
ATOM     31  F   UNL     1       2.617   8.608   4.740  0.00  0.00    +0.000 F 
ATOM     32  C   UNL     1       4.260   5.112   6.278  0.00  0.00    +0.000 A 
ATOM     33  C   UNL     1       3.068   5.103   5.540  0.00  0.00    +0.000 A 
ATOM     34  C   UNL     1       4.876   6.362   6.496  0.00  0.00    +0.000 A 
ATOM     35  C   UNL     1       4.323   7.532   5.974  0.00  0.00    +0.000 A 
ATOM     36  C   UNL     1       2.514   6.270   5.017  0.00  0.00    +0.000 A 
ATOM     37  C   UNL     1       3.149   7.485   5.240  0.00  0.00    +0.000 A 
ENDBRANCH  28  32
ENDBRANCH   1  28
TORSDOF 8
