REMARK  Name = 24777304
REMARK  12 active torsions:
REMARK  status: ('A' for Active; 'I' for Inactive)
REMARK    1  A    between atoms: O_8  and  C_27
REMARK    2  A    between atoms: O_8  and  C_28
REMARK    3  A    between atoms: N_13  and  C_22
REMARK    4  A    between atoms: C_15  and  C_21
REMARK    5  A    between atoms: C_19  and  C_20
REMARK    6  A    between atoms: C_20  and  C_22
REMARK    7  A    between atoms: C_22  and  C_24
REMARK    8  A    between atoms: C_23  and  C_25
REMARK    9  A    between atoms: C_24  and  C_26
REMARK   10  A    between atoms: C_28  and  C_31
REMARK   11  A    between atoms: C_28  and  C_32
REMARK   12  A    between atoms: C_28  and  C_33
REMARK                            x       y       z     vdW  Elec       q    Type
REMARK                         _______ _______ _______ _____ _____    ______ ____
ROOT
ATOM      1  C   UNL     1       5.075   2.210   6.301  0.00  0.00    +0.000 C 
ENDROOT
BRANCH   1   3
ATOM      2  O   UNL     1       4.094   0.309   8.279  0.00  0.00    +0.000 OA
ATOM      3  N   UNL     1       3.744   1.577   6.395  0.00  0.00    +0.000 N 
ATOM      4  C   UNL     1       3.352   0.750   7.414  0.00  0.00    +0.000 C 
ATOM      5  H   UNL     1       2.961   1.996   5.909  0.00  0.00    +0.000 HD
BRANCH   4   6
ATOM      6  O   UNL     1       2.022   0.492   7.297  0.00  0.00    +0.000 OA
BRANCH   6   7
ATOM      7  C   UNL     1       1.347  -0.459   8.176  0.00  0.00    +0.000 C 
ATOM      8  C   UNL     1       1.359  -0.008   9.642  0.00  0.00    +0.000 C 
ATOM      9  C   UNL     1      -0.121  -0.502   7.709  0.00  0.00    +0.000 C 
ATOM     10  C   UNL     1       1.938  -1.864   8.014  0.00  0.00    +0.000 C 
ENDBRANCH   6   7
ENDBRANCH   4   6
ENDBRANCH   1   3
BRANCH   1  11
ATOM     11  C   UNL     1       5.509   2.293   4.821  0.00  0.00    +0.000 C 
BRANCH  11  21
ATOM     12  O   UNL     1       7.670   3.095   5.520  0.00  0.00    +0.000 OA
ATOM     13  N   UNL     1       7.379   2.854   3.266  0.00  0.00    +0.000 N 
ATOM     14  N   UNL     1       8.663   1.707   1.072  0.00  0.00    +0.000 N 
ATOM     15  N   UNL     1      10.584   2.702   1.423  0.00  0.00    +0.000 NA
ATOM     16  N   UNL     1      10.749   1.773   0.436  0.00  0.00    +0.000 NA
ATOM     17  C   UNL     1       7.235   1.439   1.234  0.00  0.00    +0.000 C 
ATOM     18  C   UNL     1       6.585   2.564   2.074  0.00  0.00    +0.000 C 
ATOM     19  C   UNL     1       8.728   3.367   2.989  0.00  0.00    +0.000 C 
ATOM     20  C   UNL     1       9.345   2.619   1.851  0.00  0.00    +0.000 A 
ATOM     21  C   UNL     1       6.937   2.782   4.586  0.00  0.00    +0.000 C 
ATOM     22  C   UNL     1       6.454   1.304  -0.079  0.00  0.00    +0.000 C 
ATOM     23  C   UNL     1       9.612   1.118   0.268  0.00  0.00    +0.000 A 
BRANCH  23  27
ATOM     24  F   UNL     1       8.273  -0.733  -0.366  0.00  0.00    +0.000 F 
ATOM     25  F   UNL     1      10.421  -0.970  -0.502  0.00  0.00    +0.000 F 
ATOM     26  F   UNL     1       9.372   0.300  -1.936  0.00  0.00    +0.000 F 
ATOM     27  C   UNL     1       9.423  -0.057  -0.626  0.00  0.00    +0.000 C 
ENDBRANCH  23  27
ENDBRANCH  11  21
ENDBRANCH   1  11
BRANCH   1  28
ATOM     28  C   UNL     1       5.108   3.565   7.062  0.00  0.00    +0.000 C 
BRANCH  28  32
ATOM     29  F   UNL     1       2.255   3.762   6.791  0.00  0.00    +0.000 F 
ATOM     30  F   UNL     1       5.158   7.995   4.979  0.00  0.00    +0.000 F 
ATOM     31  F   UNL     1       2.426   8.012   4.808  0.00  0.00    +0.000 F 
ATOM     32  C   UNL     1       4.389   4.737   6.426  0.00  0.00    +0.000 A 
ATOM     33  C   UNL     1       2.991   4.783   6.338  0.00  0.00    +0.000 A 
ATOM     34  C   UNL     1       5.117   5.845   5.957  0.00  0.00    +0.000 A 
ATOM     35  C   UNL     1       4.450   6.944   5.416  0.00  0.00    +0.000 A 
ATOM     36  C   UNL     1       2.324   5.876   5.792  0.00  0.00    +0.000 A 
ATOM     37  C   UNL     1       3.063   6.956   5.333  0.00  0.00    +0.000 A 
ENDBRANCH  28  32
ENDBRANCH   1  28
TORSDOF 8
