REMARK  Name = 24777567
REMARK  8 active torsions:
REMARK  status: ('A' for Active; 'I' for Inactive)
REMARK    1  A    between atoms: N_12  and  C_22
REMARK    2  A    between atoms: C_13  and  C_18
REMARK    3  A    between atoms: C_14  and  C_19
REMARK    4  A    between atoms: C_17  and  C_21
REMARK    5  A    between atoms: C_20  and  C_24
REMARK    6  A    between atoms: C_21  and  C_22
REMARK    7  A    between atoms: C_22  and  C_23
REMARK    8  A    between atoms: C_23  and  C_25
REMARK                            x       y       z     vdW  Elec       q    Type
REMARK                         _______ _______ _______ _____ _____    ______ ____
ROOT
ATOM      1  O   UNL     1      -0.106   2.528   2.673  0.00  0.00    +0.000 OA
ATOM      2  N   UNL     1       1.311   3.998   1.594  0.00  0.00    +0.000 N 
ATOM      3  N   UNL     1       3.495   4.639  -0.054  0.00  0.00    +0.000 N 
ATOM      4  N   UNL     1       4.653   2.857   0.475  0.00  0.00    +0.000 NA
ATOM      5  N   UNL     1       5.255   3.463  -0.592  0.00  0.00    +0.000 NA
ATOM      6  C   UNL     1       2.427   5.621   0.031  0.00  0.00    +0.000 C 
ATOM      7  C   UNL     1       2.525   3.163   1.803  0.00  0.00    +0.000 C 
ATOM      8  C   UNL     1       1.607   5.406   1.316  0.00  0.00    +0.000 C 
ATOM      9  C   UNL     1       3.555   3.523   0.757  0.00  0.00    +0.000 A 
ATOM     10  C   UNL     1       0.071   3.607   2.118  0.00  0.00    +0.000 C 
ATOM     11  C   UNL     1       2.884   7.086   0.036  0.00  0.00    +0.000 C 
ATOM     12  C   UNL     1       2.316   1.641   1.812  0.00  0.00    +0.000 C 
ATOM     13  C   UNL     1       4.534   4.509  -0.952  0.00  0.00    +0.000 A 
ENDROOT
BRANCH  13  17
ATOM     14  F   UNL     1       3.792   6.205  -2.439  0.00  0.00    +0.000 F 
ATOM     15  F   UNL     1       5.032   4.635  -3.257  0.00  0.00    +0.000 F 
ATOM     16  F   UNL     1       5.911   6.143  -1.946  0.00  0.00    +0.000 F 
ATOM     17  C   UNL     1       4.814   5.365  -2.135  0.00  0.00    +0.000 C 
ENDBRANCH  13  17
BRANCH  10  18
ATOM     18  C   UNL     1      -1.097   4.571   1.923  0.00  0.00    +0.000 C 
BRANCH  18  19
ATOM     19  C   UNL     1      -2.432   4.053   2.488  0.00  0.00    +0.000 C 
BRANCH  19  20
ATOM     20  N   UNL     1      -3.537   4.927   2.046  0.00  0.00    +0.000 NA
ATOM     21  H   UNL     1      -3.904   4.608   1.151  0.00  0.00    +0.000 HD
ATOM     22  H   UNL     1      -3.225   5.888   1.917  0.00  0.00    +0.000 HD
ENDBRANCH  19  20
BRANCH  19  23
ATOM     23  C   UNL     1      -2.402   4.001   4.036  0.00  0.00    +0.000 C 
BRANCH  23  27
ATOM     24  F   UNL     1      -3.942   5.581   5.831  0.00  0.00    +0.000 F 
ATOM     25  F   UNL     1      -5.898   0.633   4.646  0.00  0.00    +0.000 F 
ATOM     26  F   UNL     1      -7.267   2.293   6.338  0.00  0.00    +0.000 F 
ATOM     27  C   UNL     1      -3.697   3.528   4.657  0.00  0.00    +0.000 A 
ATOM     28  C   UNL     1      -4.413   4.359   5.525  0.00  0.00    +0.000 A 
ATOM     29  C   UNL     1      -4.209   2.249   4.370  0.00  0.00    +0.000 A 
ATOM     30  C   UNL     1      -5.414   1.847   4.936  0.00  0.00    +0.000 A 
ATOM     31  C   UNL     1      -5.613   3.952   6.098  0.00  0.00    +0.000 A 
ATOM     32  C   UNL     1      -6.108   2.688   5.790  0.00  0.00    +0.000 A 
ENDBRANCH  23  27
ENDBRANCH  19  23
ENDBRANCH  18  19
ENDBRANCH  10  18
TORSDOF 6
