MODEL 1
REMARK VINA RESULT:      -8.3      0.000      0.000
REMARK  Name = 9887588
REMARK  5 active torsions:
REMARK  status: ('A' for Active; 'I' for Inactive)
REMARK    1  A    between atoms: C_17  and  C_20
REMARK    2  A    between atoms: C_18  and  C_19
REMARK    3  A    between atoms: C_19  and  C_21
REMARK    4  A    between atoms: C_21  and  C_22
REMARK    5  A    between atoms: C_22  and  C_23
REMARK                            x       y       z     vdW  Elec       q    Type
REMARK                         _______ _______ _______ _____ _____    ______ ____
ROOT
ATOM      1  O   UNL     1      55.086  71.497  36.270  0.00  0.00    +0.000 OA
ATOM      2  N   UNL     1      55.488  70.483  38.280  0.00  0.00    +0.000 N 
ATOM      3  N   UNL     1      56.614  71.074  40.740  0.00  0.00    +0.000 N 
ATOM      4  N   UNL     1      58.494  71.847  39.953  0.00  0.00    +0.000 NA
ATOM      5  N   UNL     1      58.480  72.028  41.315  0.00  0.00    +0.000 NA
ATOM      6  C   UNL     1      55.100  69.670  39.437  0.00  0.00    +0.000 C 
ATOM      7  C   UNL     1      55.303  70.463  40.725  0.00  0.00    +0.000 C 
ATOM      8  C   UNL     1      56.901  70.895  38.241  0.00  0.00    +0.000 C 
ATOM      9  C   UNL     1      57.356  71.290  39.608  0.00  0.00    +0.000 A 
ATOM     10  C   UNL     1      57.333  71.578  41.788  0.00  0.00    +0.000 A 
ATOM     11  C   UNL     1      54.671  70.833  37.221  0.00  0.00    +0.000 C 
ENDROOT
BRANCH  10  15
ATOM     12  F   UNL     1      56.496  70.351  43.637  0.00  0.00    +0.000 F 
ATOM     13  F   UNL     1      55.810  72.395  43.394  0.00  0.00    +0.000 F 
ATOM     14  F   UNL     1      57.855  71.994  44.055  0.00  0.00    +0.000 F 
ATOM     15  C   UNL     1      56.880  71.584  43.204  0.00  0.00    +0.000 C 
ENDBRANCH  10  15
BRANCH  11  16
ATOM     16  C   UNL     1      53.243  70.352  37.224  0.00  0.00    +0.000 C 
BRANCH  16  18
ATOM     17  O   UNL     1      52.661  72.620  37.687  0.00  0.00    +0.000 OA
ATOM     18  C   UNL     1      52.266  71.464  37.501  0.00  0.00    +0.000 C 
BRANCH  18  19
ATOM     19  C   UNL     1      50.787  71.134  37.502  0.00  0.00    +0.000 C 
BRANCH  19  23
ATOM     20  F   UNL     1      50.817  69.951  40.070  0.00  0.00    +0.000 F 
ATOM     21  F   UNL     1      47.945  74.545  39.548  0.00  0.00    +0.000 F 
ATOM     22  F   UNL     1      48.182  73.335  41.994  0.00  0.00    +0.000 F 
ATOM     23  C   UNL     1      50.047  71.707  38.681  0.00  0.00    +0.000 A 
ATOM     24  C   UNL     1      50.121  71.086  39.934  0.00  0.00    +0.000 A 
ATOM     25  C   UNL     1      49.286  72.877  38.555  0.00  0.00    +0.000 A 
ATOM     26  C   UNL     1      48.654  73.416  39.675  0.00  0.00    +0.000 A 
ATOM     27  C   UNL     1      49.496  71.624  41.054  0.00  0.00    +0.000 A 
ATOM     28  C   UNL     1      48.768  72.797  40.916  0.00  0.00    +0.000 A 
ENDBRANCH  19  23
ENDBRANCH  18  19
ENDBRANCH  16  18
ENDBRANCH  11  16
TORSDOF 5
ENDMDL
MODEL 2
REMARK VINA RESULT:      -8.1     20.200     21.495
REMARK  Name = 9887588
REMARK  5 active torsions:
REMARK  status: ('A' for Active; 'I' for Inactive)
REMARK    1  A    between atoms: C_17  and  C_20
REMARK    2  A    between atoms: C_18  and  C_19
REMARK    3  A    between atoms: C_19  and  C_21
REMARK    4  A    between atoms: C_21  and  C_22
REMARK    5  A    between atoms: C_22  and  C_23
REMARK                            x       y       z     vdW  Elec       q    Type
REMARK                         _______ _______ _______ _____ _____    ______ ____
ROOT
ATOM      1  O   UNL     1      50.551  48.932  33.525  0.00  0.00    +0.000 OA
ATOM      2  N   UNL     1      51.588  49.284  35.533  0.00  0.00    +0.000 N 
ATOM      3  N   UNL     1      53.985  50.263  36.513  0.00  0.00    +0.000 N 
ATOM      4  N   UNL     1      55.269  49.016  35.268  0.00  0.00    +0.000 NA
ATOM      5  N   UNL     1      56.058  49.890  35.977  0.00  0.00    +0.000 NA
ATOM      6  C   UNL     1      51.630  49.764  36.918  0.00  0.00    +0.000 C 
ATOM      7  C   UNL     1      52.760  50.775  37.086  0.00  0.00    +0.000 C 
ATOM      8  C   UNL     1      52.791  48.572  35.073  0.00  0.00    +0.000 C 
ATOM      9  C   UNL     1      54.017  49.259  35.580  0.00  0.00    +0.000 A 
ATOM     10  C   UNL     1      55.279  50.657  36.715  0.00  0.00    +0.000 A 
ATOM     11  C   UNL     1      50.514  49.390  34.668  0.00  0.00    +0.000 C 
ENDROOT
BRANCH  10  15
ATOM     12  F   UNL     1      57.053  51.888  37.696  0.00  0.00    +0.000 F 
ATOM     13  F   UNL     1      55.286  51.539  38.904  0.00  0.00    +0.000 F 
ATOM     14  F   UNL     1      55.219  52.960  37.244  0.00  0.00    +0.000 F 
ATOM     15  C   UNL     1      55.700  51.751  37.630  0.00  0.00    +0.000 C 
ENDBRANCH  10  15
BRANCH  11  16
ATOM     16  C   UNL     1      49.255  50.056  35.161  0.00  0.00    +0.000 C 
BRANCH  16  18
ATOM     17  O   UNL     1      50.004  52.049  34.083  0.00  0.00    +0.000 OA
ATOM     18  C   UNL     1      49.274  51.545  34.942  0.00  0.00    +0.000 C 
BRANCH  18  19
ATOM     19  C   UNL     1      48.340  52.403  35.774  0.00  0.00    +0.000 C 
BRANCH  19  23
ATOM     20  F   UNL     1      46.998  53.161  33.403  0.00  0.00    +0.000 F 
ATOM     21  F   UNL     1      44.045  50.494  37.116  0.00  0.00    +0.000 F 
ATOM     22  F   UNL     1      42.935  51.193  34.713  0.00  0.00    +0.000 F 
ATOM     23  C   UNL     1      46.884  52.116  35.525  0.00  0.00    +0.000 A 
ATOM     24  C   UNL     1      46.282  52.497  34.319  0.00  0.00    +0.000 A 
ATOM     25  C   UNL     1      46.106  51.449  36.482  0.00  0.00    +0.000 A 
ATOM     26  C   UNL     1      44.774  51.148  36.203  0.00  0.00    +0.000 A 
ATOM     27  C   UNL     1      44.955  52.194  34.036  0.00  0.00    +0.000 A 
ATOM     28  C   UNL     1      44.207  51.510  34.985  0.00  0.00    +0.000 A 
ENDBRANCH  19  23
ENDBRANCH  18  19
ENDBRANCH  16  18
ENDBRANCH  11  16
TORSDOF 5
ENDMDL
MODEL 3
REMARK VINA RESULT:      -7.6      4.627      7.897
REMARK  Name = 9887588
REMARK  5 active torsions:
REMARK  status: ('A' for Active; 'I' for Inactive)
REMARK    1  A    between atoms: C_17  and  C_20
REMARK    2  A    between atoms: C_18  and  C_19
REMARK    3  A    between atoms: C_19  and  C_21
REMARK    4  A    between atoms: C_21  and  C_22
REMARK    5  A    between atoms: C_22  and  C_23
REMARK                            x       y       z     vdW  Elec       q    Type
REMARK                         _______ _______ _______ _____ _____    ______ ____
ROOT
ATOM      1  O   UNL     1      56.744  68.939  37.899  0.00  0.00    +0.000 OA
ATOM      2  N   UNL     1      57.267  70.731  39.219  0.00  0.00    +0.000 N 
ATOM      3  N   UNL     1      56.610  71.772  41.700  0.00  0.00    +0.000 N 
ATOM      4  N   UNL     1      54.450  71.720  41.406  0.00  0.00    +0.000 NA
ATOM      5  N   UNL     1      54.710  72.116  42.696  0.00  0.00    +0.000 NA
ATOM      6  C   UNL     1      58.208  71.657  39.858  0.00  0.00    +0.000 C 
ATOM      7  C   UNL     1      58.012  71.640  41.371  0.00  0.00    +0.000 C 
ATOM      8  C   UNL     1      55.842  71.048  39.410  0.00  0.00    +0.000 C 
ATOM      9  C   UNL     1      55.600  71.494  40.814  0.00  0.00    +0.000 A 
ATOM     10  C   UNL     1      56.017  72.128  42.879  0.00  0.00    +0.000 A 
ATOM     11  C   UNL     1      57.601  69.651  38.424  0.00  0.00    +0.000 C 
ENDROOT
BRANCH  10  15
ATOM     12  F   UNL     1      57.435  71.427  44.645  0.00  0.00    +0.000 F 
ATOM     13  F   UNL     1      55.910  72.898  45.107  0.00  0.00    +0.000 F 
ATOM     14  F   UNL     1      57.661  73.464  43.927  0.00  0.00    +0.000 F 
ATOM     15  C   UNL     1      56.747  72.480  44.125  0.00  0.00    +0.000 C 
ENDBRANCH  10  15
BRANCH  11  16
ATOM     16  C   UNL     1      59.060  69.369  38.169  0.00  0.00    +0.000 C 
BRANCH  16  18
ATOM     17  O   UNL     1      60.464  69.044  40.071  0.00  0.00    +0.000 OA
ATOM     18  C   UNL     1      59.680  68.539  39.261  0.00  0.00    +0.000 C 
BRANCH  18  19
ATOM     19  C   UNL     1      59.281  67.080  39.365  0.00  0.00    +0.000 C 
BRANCH  19  23
ATOM     20  F   UNL     1      57.268  67.892  41.178  0.00  0.00    +0.000 F 
ATOM     21  F   UNL     1      60.914  64.309  43.046  0.00  0.00    +0.000 F 
ATOM     22  F   UNL     1      58.827  65.107  44.629  0.00  0.00    +0.000 F 
ATOM     23  C   UNL     1      59.201  66.582  40.783  0.00  0.00    +0.000 A 
ATOM     24  C   UNL     1      58.164  67.004  41.626  0.00  0.00    +0.000 A 
ATOM     25  C   UNL     1      60.146  65.675  41.284  0.00  0.00    +0.000 A 
ATOM     26  C   UNL     1      60.017  65.189  42.584  0.00  0.00    +0.000 A 
ATOM     27  C   UNL     1      58.031  66.517  42.921  0.00  0.00    +0.000 A 
ATOM     28  C   UNL     1      58.960  65.600  43.391  0.00  0.00    +0.000 A 
ENDBRANCH  19  23
ENDBRANCH  18  19
ENDBRANCH  16  18
ENDBRANCH  11  16
TORSDOF 5
ENDMDL
MODEL 4
REMARK VINA RESULT:      -7.2      2.761      3.733
REMARK  Name = 9887588
REMARK  5 active torsions:
REMARK  status: ('A' for Active; 'I' for Inactive)
REMARK    1  A    between atoms: C_17  and  C_20
REMARK    2  A    between atoms: C_18  and  C_19
REMARK    3  A    between atoms: C_19  and  C_21
REMARK    4  A    between atoms: C_21  and  C_22
REMARK    5  A    between atoms: C_22  and  C_23
REMARK                            x       y       z     vdW  Elec       q    Type
REMARK                         _______ _______ _______ _____ _____    ______ ____
ROOT
ATOM      1  O   UNL     1      53.688  67.666  42.249  0.00  0.00    +0.000 OA
ATOM      2  N   UNL     1      55.264  69.278  42.629  0.00  0.00    +0.000 N 
ATOM      3  N   UNL     1      57.691  70.123  41.598  0.00  0.00    +0.000 N 
ATOM      4  N   UNL     1      58.656  68.169  41.651  0.00  0.00    +0.000 NA
ATOM      5  N   UNL     1      59.505  69.063  41.044  0.00  0.00    +0.000 NA
ATOM      6  C   UNL     1      55.690  70.657  42.891  0.00  0.00    +0.000 C 
ATOM      7  C   UNL     1      56.663  71.117  41.809  0.00  0.00    +0.000 C 
ATOM      8  C   UNL     1      56.337  68.270  42.644  0.00  0.00    +0.000 C 
ATOM      9  C   UNL     1      57.554  68.809  41.966  0.00  0.00    +0.000 A 
ATOM     10  C   UNL     1      58.912  70.240  40.995  0.00  0.00    +0.000 A 
ATOM     11  C   UNL     1      53.963  68.852  42.435  0.00  0.00    +0.000 C 
ENDROOT
BRANCH  10  15
ATOM     12  F   UNL     1      60.640  71.307  39.769  0.00  0.00    +0.000 F 
ATOM     13  F   UNL     1      59.691  72.438  41.359  0.00  0.00    +0.000 F 
ATOM     14  F   UNL     1      58.615  72.045  39.497  0.00  0.00    +0.000 F 
ATOM     15  C   UNL     1      59.454  71.496  40.412  0.00  0.00    +0.000 C 
ENDBRANCH  10  15
BRANCH  11  16
ATOM     16  C   UNL     1      52.855  69.873  42.490  0.00  0.00    +0.000 C 
BRANCH  16  18
ATOM     17  O   UNL     1      53.213  70.924  40.378  0.00  0.00    +0.000 OA
ATOM     18  C   UNL     1      52.428  70.325  41.120  0.00  0.00    +0.000 C 
BRANCH  18  19
ATOM     19  C   UNL     1      51.023  69.988  40.660  0.00  0.00    +0.000 C 
BRANCH  19  23
ATOM     20  F   UNL     1      50.928  71.106  38.065  0.00  0.00    +0.000 F 
ATOM     21  F   UNL     1      47.883  73.535  41.866  0.00  0.00    +0.000 F 
ATOM     22  F   UNL     1      47.814  74.413  39.273  0.00  0.00    +0.000 F 
ATOM     23  C   UNL     1      50.199  71.199  40.316  0.00  0.00    +0.000 A 
ATOM     24  C   UNL     1      50.176  71.691  39.004  0.00  0.00    +0.000 A 
ATOM     25  C   UNL     1      49.427  71.847  41.290  0.00  0.00    +0.000 A 
ATOM     26  C   UNL     1      48.632  72.935  40.932  0.00  0.00    +0.000 A 
ATOM     27  C   UNL     1      49.379  72.772  38.644  0.00  0.00    +0.000 A 
ATOM     28  C   UNL     1      48.602  73.386  39.616  0.00  0.00    +0.000 A 
ENDBRANCH  19  23
ENDBRANCH  18  19
ENDBRANCH  16  18
ENDBRANCH  11  16
TORSDOF 5
ENDMDL
MODEL 5
REMARK VINA RESULT:      -7.1     20.958     22.368
REMARK  Name = 9887588
REMARK  5 active torsions:
REMARK  status: ('A' for Active; 'I' for Inactive)
REMARK    1  A    between atoms: C_17  and  C_20
REMARK    2  A    between atoms: C_18  and  C_19
REMARK    3  A    between atoms: C_19  and  C_21
REMARK    4  A    between atoms: C_21  and  C_22
REMARK    5  A    between atoms: C_22  and  C_23
REMARK                            x       y       z     vdW  Elec       q    Type
REMARK                         _______ _______ _______ _____ _____    ______ ____
ROOT
ATOM      1  O   UNL     1      48.632  51.461  33.777  0.00  0.00    +0.000 OA
ATOM      2  N   UNL     1      50.080  50.348  35.153  0.00  0.00    +0.000 N 
ATOM      3  N   UNL     1      52.572  49.146  35.044  0.00  0.00    +0.000 N 
ATOM      4  N   UNL     1      52.150  47.897  33.309  0.00  0.00    +0.000 NA
ATOM      5  N   UNL     1      53.474  47.747  33.647  0.00  0.00    +0.000 NA
ATOM      6  C   UNL     1      50.824  50.173  36.405  0.00  0.00    +0.000 C 
ATOM      7  C   UNL     1      52.320  50.085  36.115  0.00  0.00    +0.000 C 
ATOM      8  C   UNL     1      50.204  49.246  34.184  0.00  0.00    +0.000 C 
ATOM      9  C   UNL     1      51.615  48.758  34.143  0.00  0.00    +0.000 A 
ATOM     10  C   UNL     1      53.733  48.519  34.686  0.00  0.00    +0.000 A 
ATOM     11  C   UNL     1      49.246  51.406  34.844  0.00  0.00    +0.000 C 
ENDROOT
BRANCH  10  15
ATOM     12  F   UNL     1      55.552  49.938  35.236  0.00  0.00    +0.000 F 
ATOM     13  F   UNL     1      55.982  47.839  34.898  0.00  0.00    +0.000 F 
ATOM     14  F   UNL     1      54.943  48.468  36.715  0.00  0.00    +0.000 F 
ATOM     15  C   UNL     1      55.037  48.685  35.379  0.00  0.00    +0.000 C 
ENDBRANCH  10  15
BRANCH  11  16
ATOM     16  C   UNL     1      49.061  52.500  35.864  0.00  0.00    +0.000 C 
BRANCH  16  18
ATOM     17  O   UNL     1      47.835  51.398  37.591  0.00  0.00    +0.000 OA
ATOM     18  C   UNL     1      47.845  52.278  36.724  0.00  0.00    +0.000 C 
BRANCH  18  19
ATOM     19  C   UNL     1      46.652  53.193  36.526  0.00  0.00    +0.000 C 
BRANCH  19  23
ATOM     20  F   UNL     1      46.095  53.186  33.753  0.00  0.00    +0.000 F 
ATOM     21  F   UNL     1      42.619  50.461  36.934  0.00  0.00    +0.000 F 
ATOM     22  F   UNL     1      42.298  50.454  34.214  0.00  0.00    +0.000 F 
ATOM     23  C   UNL     1      45.459  52.498  35.928  0.00  0.00    +0.000 A 
ATOM     24  C   UNL     1      45.251  52.511  34.543  0.00  0.00    +0.000 A 
ATOM     25  C   UNL     1      44.544  51.811  36.738  0.00  0.00    +0.000 A 
ATOM     26  C   UNL     1      43.477  51.131  36.153  0.00  0.00    +0.000 A 
ATOM     27  C   UNL     1      44.190  51.830  33.957  0.00  0.00    +0.000 A 
ATOM     28  C   UNL     1      43.309  51.133  34.771  0.00  0.00    +0.000 A 
ENDBRANCH  19  23
ENDBRANCH  18  19
ENDBRANCH  16  18
ENDBRANCH  11  16
TORSDOF 5
ENDMDL
MODEL 6
REMARK VINA RESULT:      -6.7     20.361     21.497
REMARK  Name = 9887588
REMARK  5 active torsions:
REMARK  status: ('A' for Active; 'I' for Inactive)
REMARK    1  A    between atoms: C_17  and  C_20
REMARK    2  A    between atoms: C_18  and  C_19
REMARK    3  A    between atoms: C_19  and  C_21
REMARK    4  A    between atoms: C_21  and  C_22
REMARK    5  A    between atoms: C_22  and  C_23
REMARK                            x       y       z     vdW  Elec       q    Type
REMARK                         _______ _______ _______ _____ _____    ______ ____
ROOT
ATOM      1  O   UNL     1      48.921  51.707  33.830  0.00  0.00    +0.000 OA
ATOM      2  N   UNL     1      50.304  51.064  35.534  0.00  0.00    +0.000 N 
ATOM      3  N   UNL     1      53.012  50.825  36.061  0.00  0.00    +0.000 N 
ATOM      4  N   UNL     1      53.489  49.652  34.287  0.00  0.00    +0.000 NA
ATOM      5  N   UNL     1      54.658  49.948  34.946  0.00  0.00    +0.000 NA
ATOM      6  C   UNL     1      50.744  51.060  36.933  0.00  0.00    +0.000 C 
ATOM      7  C   UNL     1      52.194  51.526  37.026  0.00  0.00    +0.000 C 
ATOM      8  C   UNL     1      51.041  50.158  34.637  0.00  0.00    +0.000 C 
ATOM      9  C   UNL     1      52.500  50.200  34.953  0.00  0.00    +0.000 A 
ATOM     10  C   UNL     1      54.370  50.675  36.009  0.00  0.00    +0.000 A 
ATOM     11  C   UNL     1      49.244  51.784  35.017  0.00  0.00    +0.000 C 
ENDROOT
BRANCH  10  15
ATOM     12  F   UNL     1      55.372  52.591  36.982  0.00  0.00    +0.000 F 
ATOM     13  F   UNL     1      56.595  50.811  36.781  0.00  0.00    +0.000 F 
ATOM     14  F   UNL     1      55.002  50.886  38.276  0.00  0.00    +0.000 F 
ATOM     15  C   UNL     1      55.325  51.231  37.003  0.00  0.00    +0.000 C 
ENDBRANCH  10  15
BRANCH  11  16
ATOM     16  C   UNL     1      48.443  52.658  35.949  0.00  0.00    +0.000 C 
BRANCH  16  18
ATOM     17  O   UNL     1      47.341  50.738  36.843  0.00  0.00    +0.000 OA
ATOM     18  C   UNL     1      47.262  51.933  36.536  0.00  0.00    +0.000 C 
BRANCH  18  19
ATOM     19  C   UNL     1      45.989  52.719  36.780  0.00  0.00    +0.000 C 
BRANCH  19  23
ATOM     20  F   UNL     1      44.048  51.449  38.398  0.00  0.00    +0.000 F 
ATOM     21  F   UNL     1      43.111  51.452  33.037  0.00  0.00    +0.000 F 
ATOM     22  F   UNL     1      41.275  50.374  34.759  0.00  0.00    +0.000 F 
ATOM     23  C   UNL     1      44.759  52.054  36.223  0.00  0.00    +0.000 A 
ATOM     24  C   UNL     1      43.822  51.462  37.079  0.00  0.00    +0.000 A 
ATOM     25  C   UNL     1      44.516  52.029  34.842  0.00  0.00    +0.000 A 
ATOM     26  C   UNL     1      43.343  51.454  34.356  0.00  0.00    +0.000 A 
ATOM     27  C   UNL     1      42.649  50.893  36.598  0.00  0.00    +0.000 A 
ATOM     28  C   UNL     1      42.413  50.899  35.230  0.00  0.00    +0.000 A 
ENDBRANCH  19  23
ENDBRANCH  18  19
ENDBRANCH  16  18
ENDBRANCH  11  16
TORSDOF 5
ENDMDL
MODEL 7
REMARK VINA RESULT:      -6.7     20.796     22.165
REMARK  Name = 9887588
REMARK  5 active torsions:
REMARK  status: ('A' for Active; 'I' for Inactive)
REMARK    1  A    between atoms: C_17  and  C_20
REMARK    2  A    between atoms: C_18  and  C_19
REMARK    3  A    between atoms: C_19  and  C_21
REMARK    4  A    between atoms: C_21  and  C_22
REMARK    5  A    between atoms: C_22  and  C_23
REMARK                            x       y       z     vdW  Elec       q    Type
REMARK                         _______ _______ _______ _____ _____    ______ ____
ROOT
ATOM      1  O   UNL     1      48.055  53.339  34.680  0.00  0.00    +0.000 OA
ATOM      2  N   UNL     1      49.089  51.461  35.474  0.00  0.00    +0.000 N 
ATOM      3  N   UNL     1      51.617  50.336  35.561  0.00  0.00    +0.000 N 
ATOM      4  N   UNL     1      52.022  50.513  33.427  0.00  0.00    +0.000 NA
ATOM      5  N   UNL     1      53.152  50.042  34.051  0.00  0.00    +0.000 NA
ATOM      6  C   UNL     1      49.369  50.458  36.506  0.00  0.00    +0.000 C 
ATOM      7  C   UNL     1      50.867  50.411  36.795  0.00  0.00    +0.000 C 
ATOM      8  C   UNL     1      49.710  51.209  34.163  0.00  0.00    +0.000 C 
ATOM      9  C   UNL     1      51.105  50.708  34.345  0.00  0.00    +0.000 A 
ATOM     10  C   UNL     1      52.912  49.954  35.346  0.00  0.00    +0.000 A 
ATOM     11  C   UNL     1      48.261  52.559  35.611  0.00  0.00    +0.000 C 
ENDROOT
BRANCH  10  15
ATOM     12  F   UNL     1      55.094  49.223  35.921  0.00  0.00    +0.000 F 
ATOM     13  F   UNL     1      53.428  48.371  37.019  0.00  0.00    +0.000 F 
ATOM     14  F   UNL     1      54.030  50.443  37.370  0.00  0.00    +0.000 F 
ATOM     15  C   UNL     1      53.853  49.504  36.405  0.00  0.00    +0.000 C 
ENDBRANCH  10  15
BRANCH  11  16
ATOM     16  C   UNL     1      47.567  52.777  36.931  0.00  0.00    +0.000 C 
BRANCH  16  18
ATOM     17  O   UNL     1      45.330  53.583  37.142  0.00  0.00    +0.000 OA
ATOM     18  C   UNL     1      46.071  52.649  36.817  0.00  0.00    +0.000 C 
BRANCH  18  19
ATOM     19  C   UNL     1      45.504  51.362  36.252  0.00  0.00    +0.000 C 
BRANCH  19  23
ATOM     20  F   UNL     1      42.842  51.334  35.297  0.00  0.00    +0.000 F 
ATOM     21  F   UNL     1      43.666  49.225  40.246  0.00  0.00    +0.000 F 
ATOM     22  F   UNL     1      41.171  49.167  39.118  0.00  0.00    +0.000 F 
ATOM     23  C   UNL     1      44.349  50.817  37.049  0.00  0.00    +0.000 A 
ATOM     24  C   UNL     1      43.056  50.810  36.509  0.00  0.00    +0.000 A 
ATOM     25  C   UNL     1      44.544  50.290  38.333  0.00  0.00    +0.000 A 
ATOM     26  C   UNL     1      43.466  49.743  39.027  0.00  0.00    +0.000 A 
ATOM     27  C   UNL     1      41.980  50.260  37.198  0.00  0.00    +0.000 A 
ATOM     28  C   UNL     1      42.196  49.720  38.458  0.00  0.00    +0.000 A 
ENDBRANCH  19  23
ENDBRANCH  18  19
ENDBRANCH  16  18
ENDBRANCH  11  16
TORSDOF 5
ENDMDL
MODEL 8
REMARK VINA RESULT:      -6.7     21.803     23.940
REMARK  Name = 9887588
REMARK  5 active torsions:
REMARK  status: ('A' for Active; 'I' for Inactive)
REMARK    1  A    between atoms: C_17  and  C_20
REMARK    2  A    between atoms: C_18  and  C_19
REMARK    3  A    between atoms: C_19  and  C_21
REMARK    4  A    between atoms: C_21  and  C_22
REMARK    5  A    between atoms: C_22  and  C_23
REMARK                            x       y       z     vdW  Elec       q    Type
REMARK                         _______ _______ _______ _____ _____    ______ ____
ROOT
ATOM      1  O   UNL     1      48.110  51.495  36.546  0.00  0.00    +0.000 OA
ATOM      2  N   UNL     1      46.029  51.485  37.495  0.00  0.00    +0.000 N 
ATOM      3  N   UNL     1      43.373  51.366  36.723  0.00  0.00    +0.000 N 
ATOM      4  N   UNL     1      43.479  52.993  35.277  0.00  0.00    +0.000 NA
ATOM      5  N   UNL     1      42.228  52.429  35.213  0.00  0.00    +0.000 NA
ATOM      6  C   UNL     1      45.039  51.028  38.475  0.00  0.00    +0.000 C 
ATOM      7  C   UNL     1      43.818  50.459  37.758  0.00  0.00    +0.000 C 
ATOM      8  C   UNL     1      45.584  52.572  36.606  0.00  0.00    +0.000 C 
ATOM      9  C   UNL     1      44.174  52.334  36.176  0.00  0.00    +0.000 A 
ATOM     10  C   UNL     1      42.171  51.432  36.075  0.00  0.00    +0.000 A 
ATOM     11  C   UNL     1      47.331  51.034  37.382  0.00  0.00    +0.000 C 
ENDROOT
BRANCH  10  15
ATOM     12  F   UNL     1      41.326  49.217  36.168  0.00  0.00    +0.000 F 
ATOM     13  F   UNL     1      39.979  50.778  35.494  0.00  0.00    +0.000 F 
ATOM     14  F   UNL     1      40.544  50.650  37.602  0.00  0.00    +0.000 F 
ATOM     15  C   UNL     1      41.016  50.533  36.334  0.00  0.00    +0.000 C 
ENDBRANCH  10  15
BRANCH  11  16
ATOM     16  C   UNL     1      47.810  49.972  38.339  0.00  0.00    +0.000 C 
BRANCH  16  18
ATOM     17  O   UNL     1      50.065  50.586  38.823  0.00  0.00    +0.000 OA
ATOM     18  C   UNL     1      49.303  49.782  38.278  0.00  0.00    +0.000 C 
BRANCH  18  19
ATOM     19  C   UNL     1      49.839  48.554  37.569  0.00  0.00    +0.000 C 
BRANCH  19  23
ATOM     20  F   UNL     1      49.433  49.352  34.887  0.00  0.00    +0.000 F 
ATOM     21  F   UNL     1      54.601  48.998  36.557  0.00  0.00    +0.000 F 
ATOM     22  F   UNL     1      54.025  49.875  34.028  0.00  0.00    +0.000 F 
ATOM     23  C   UNL     1      50.968  48.856  36.620  0.00  0.00    +0.000 A 
ATOM     24  C   UNL     1      50.700  49.270  35.309  0.00  0.00    +0.000 A 
ATOM     25  C   UNL     1      52.304  48.749  37.032  0.00  0.00    +0.000 A 
ATOM     26  C   UNL     1      53.328  49.086  36.149  0.00  0.00    +0.000 A 
ATOM     27  C   UNL     1      51.721  49.613  34.429  0.00  0.00    +0.000 A 
ATOM     28  C   UNL     1      53.036  49.525  34.860  0.00  0.00    +0.000 A 
ENDBRANCH  19  23
ENDBRANCH  18  19
ENDBRANCH  16  18
ENDBRANCH  11  16
TORSDOF 5
ENDMDL
MODEL 9
REMARK VINA RESULT:      -6.6     26.575     27.959
REMARK  Name = 9887588
REMARK  5 active torsions:
REMARK  status: ('A' for Active; 'I' for Inactive)
REMARK    1  A    between atoms: C_17  and  C_20
REMARK    2  A    between atoms: C_18  and  C_19
REMARK    3  A    between atoms: C_19  and  C_21
REMARK    4  A    between atoms: C_21  and  C_22
REMARK    5  A    between atoms: C_22  and  C_23
REMARK                            x       y       z     vdW  Elec       q    Type
REMARK                         _______ _______ _______ _____ _____    ______ ____
ROOT
ATOM      1  O   UNL     1      39.366  50.769  49.755  0.00  0.00    +0.000 OA
ATOM      2  N   UNL     1      37.299  51.176  48.866  0.00  0.00    +0.000 N 
ATOM      3  N   UNL     1      35.378  53.170  48.847  0.00  0.00    +0.000 N 
ATOM      4  N   UNL     1      35.271  53.407  51.011  0.00  0.00    +0.000 NA
ATOM      5  N   UNL     1      34.479  54.364  50.424  0.00  0.00    +0.000 NA
ATOM      6  C   UNL     1      36.327  51.196  47.767  0.00  0.00    +0.000 C 
ATOM      7  C   UNL     1      35.785  52.610  47.577  0.00  0.00    +0.000 C 
ATOM      8  C   UNL     1      36.768  51.548  50.187  0.00  0.00    +0.000 C 
ATOM      9  C   UNL     1      35.828  52.701  50.054  0.00  0.00    +0.000 A 
ATOM     10  C   UNL     1      34.560  54.232  49.113  0.00  0.00    +0.000 A 
ATOM     11  C   UNL     1      38.622  50.786  48.774  0.00  0.00    +0.000 C 
ENDROOT
BRANCH  10  15
ATOM     12  F   UNL     1      34.655  56.091  47.644  0.00  0.00    +0.000 F 
ATOM     13  F   UNL     1      32.741  55.627  48.553  0.00  0.00    +0.000 F 
ATOM     14  F   UNL     1      33.550  54.343  46.980  0.00  0.00    +0.000 F 
ATOM     15  C   UNL     1      33.881  55.061  48.083  0.00  0.00    +0.000 C 
ENDBRANCH  10  15
BRANCH  11  16
ATOM     16  C   UNL     1      39.149  50.335  47.435  0.00  0.00    +0.000 C 
BRANCH  16  18
ATOM     17  O   UNL     1      39.624  48.127  48.207  0.00  0.00    +0.000 OA
ATOM     18  C   UNL     1      39.166  48.835  47.304  0.00  0.00    +0.000 C 
BRANCH  18  19
ATOM     19  C   UNL     1      38.565  48.219  46.056  0.00  0.00    +0.000 C 
BRANCH  19  23
ATOM     20  F   UNL     1      40.868  46.640  45.611  0.00  0.00    +0.000 F 
ATOM     21  F   UNL     1      39.642  50.283  41.758  0.00  0.00    +0.000 F 
ATOM     22  F   UNL     1      41.768  48.588  41.429  0.00  0.00    +0.000 F 
ATOM     23  C   UNL     1      39.438  48.362  44.839  0.00  0.00    +0.000 A 
ATOM     24  C   UNL     1      40.554  47.533  44.665  0.00  0.00    +0.000 A 
ATOM     25  C   UNL     1      39.146  49.311  43.849  0.00  0.00    +0.000 A 
ATOM     26  C   UNL     1      39.941  49.386  42.706  0.00  0.00    +0.000 A 
ATOM     27  C   UNL     1      41.345  47.602  43.524  0.00  0.00    +0.000 A 
ATOM     28  C   UNL     1      41.026  48.530  42.542  0.00  0.00    +0.000 A 
ENDBRANCH  19  23
ENDBRANCH  18  19
ENDBRANCH  16  18
ENDBRANCH  11  16
TORSDOF 5
ENDMDL
