MODEL 1
REMARK VINA RESULT:      -9.0      0.000      0.000
REMARK  Name = 24777438
REMARK  13 active torsions:
REMARK  status: ('A' for Active; 'I' for Inactive)
REMARK    1  A    between atoms: O_8  and  C_28
REMARK    2  A    between atoms: O_8  and  C_29
REMARK    3  A    between atoms: N_14  and  C_24
REMARK    4  A    between atoms: C_15  and  C_20
REMARK    5  A    between atoms: C_16  and  C_21
REMARK    6  A    between atoms: C_19  and  C_22
REMARK    7  A    between atoms: C_22  and  C_24
REMARK    8  A    between atoms: C_23  and  C_26
REMARK    9  A    between atoms: C_24  and  C_25
REMARK   10  A    between atoms: C_25  and  C_27
REMARK   11  A    between atoms: C_29  and  C_32
REMARK   12  A    between atoms: C_29  and  C_33
REMARK   13  A    between atoms: C_29  and  C_34
REMARK                            x       y       z     vdW  Elec       q    Type
REMARK                         _______ _______ _______ _____ _____    ______ ____
ROOT
ATOM      1  C   UNL     1      52.311  70.034  37.622  0.00  0.00    +0.000 C 
ENDROOT
BRANCH   1   3
ATOM      2  O   UNL     1      54.200  67.868  36.871  0.00  0.00    +0.000 OA
ATOM      3  N   UNL     1      52.771  69.563  36.281  0.00  0.00    +0.000 N 
ATOM      4  C   UNL     1      53.604  68.496  36.012  0.00  0.00    +0.000 C 
ATOM      5  H   UNL     1      52.213  69.822  35.470  0.00  0.00    +0.000 HD
BRANCH   4   6
ATOM      6  O   UNL     1      53.675  68.271  34.656  0.00  0.00    +0.000 OA
BRANCH   6   7
ATOM      7  C   UNL     1      53.197  67.026  34.034  0.00  0.00    +0.000 C 
ATOM      8  C   UNL     1      52.143  66.319  34.894  0.00  0.00    +0.000 C 
ATOM      9  C   UNL     1      52.545  67.345  32.657  0.00  0.00    +0.000 C 
ATOM     10  C   UNL     1      54.390  66.103  33.763  0.00  0.00    +0.000 C 
ENDBRANCH   6   7
ENDBRANCH   4   6
ENDBRANCH   1   3
BRANCH   1  11
ATOM     11  C   UNL     1      53.080  71.314  38.086  0.00  0.00    +0.000 C 
BRANCH  11  21
ATOM     12  O   UNL     1      55.039  71.752  36.725  0.00  0.00    +0.000 OA
ATOM     13  N   UNL     1      55.469  70.933  38.810  0.00  0.00    +0.000 N 
ATOM     14  N   UNL     1      56.936  71.504  41.111  0.00  0.00    +0.000 N 
ATOM     15  N   UNL     1      58.854  71.766  40.086  0.00  0.00    +0.000 NA
ATOM     16  N   UNL     1      58.996  72.154  41.390  0.00  0.00    +0.000 NA
ATOM     17  C   UNL     1      55.539  71.117  41.280  0.00  0.00    +0.000 C 
ATOM     18  C   UNL     1      56.936  70.991  38.606  0.00  0.00    +0.000 C 
ATOM     19  C   UNL     1      55.075  70.300  40.064  0.00  0.00    +0.000 C 
ATOM     20  C   UNL     1      57.587  71.411  39.896  0.00  0.00    +0.000 A 
ATOM     21  C   UNL     1      54.595  71.346  37.799  0.00  0.00    +0.000 C 
ATOM     22  C   UNL     1      55.273  70.263  42.524  0.00  0.00    +0.000 C 
ATOM     23  C   UNL     1      57.465  69.643  38.108  0.00  0.00    +0.000 C 
ATOM     24  C   UNL     1      57.827  72.056  42.003  0.00  0.00    +0.000 A 
BRANCH  24  28
ATOM     25  F   UNL     1      58.409  73.409  43.878  0.00  0.00    +0.000 F 
ATOM     26  F   UNL     1      57.630  71.438  44.285  0.00  0.00    +0.000 F 
ATOM     27  F   UNL     1      56.302  73.007  43.544  0.00  0.00    +0.000 F 
ATOM     28  C   UNL     1      57.544  72.472  43.409  0.00  0.00    +0.000 C 
ENDBRANCH  24  28
ENDBRANCH  11  21
ENDBRANCH   1  11
BRANCH   1  29
ATOM     29  C   UNL     1      50.763  70.214  37.688  0.00  0.00    +0.000 C 
BRANCH  29  33
ATOM     30  F   UNL     1      50.788  69.613  40.591  0.00  0.00    +0.000 F 
ATOM     31  F   UNL     1      48.237  74.160  39.027  0.00  0.00    +0.000 F 
ATOM     32  F   UNL     1      48.268  73.406  41.661  0.00  0.00    +0.000 F 
ATOM     33  C   UNL     1      50.123  71.036  38.794  0.00  0.00    +0.000 A 
ATOM     34  C   UNL     1      50.165  70.714  40.158  0.00  0.00    +0.000 A 
ATOM     35  C   UNL     1      49.479  72.239  38.436  0.00  0.00    +0.000 A 
ATOM     36  C   UNL     1      48.862  73.036  39.400  0.00  0.00    +0.000 A 
ATOM     37  C   UNL     1      49.542  71.503  41.123  0.00  0.00    +0.000 A 
ATOM     38  C   UNL     1      48.885  72.661  40.736  0.00  0.00    +0.000 A 
ENDBRANCH  29  33
ENDBRANCH   1  29
TORSDOF 8
ENDMDL
MODEL 2
REMARK VINA RESULT:      -8.5     25.211     27.726
REMARK  Name = 24777438
REMARK  13 active torsions:
REMARK  status: ('A' for Active; 'I' for Inactive)
REMARK    1  A    between atoms: O_8  and  C_28
REMARK    2  A    between atoms: O_8  and  C_29
REMARK    3  A    between atoms: N_14  and  C_24
REMARK    4  A    between atoms: C_15  and  C_20
REMARK    5  A    between atoms: C_16  and  C_21
REMARK    6  A    between atoms: C_19  and  C_22
REMARK    7  A    between atoms: C_22  and  C_24
REMARK    8  A    between atoms: C_23  and  C_26
REMARK    9  A    between atoms: C_24  and  C_25
REMARK   10  A    between atoms: C_25  and  C_27
REMARK   11  A    between atoms: C_29  and  C_32
REMARK   12  A    between atoms: C_29  and  C_33
REMARK   13  A    between atoms: C_29  and  C_34
REMARK                            x       y       z     vdW  Elec       q    Type
REMARK                         _______ _______ _______ _____ _____    ______ ____
ROOT
ATOM      1  C   UNL     1      37.533  52.310  44.855  0.00  0.00    +0.000 C 
ENDROOT
BRANCH   1   3
ATOM      2  O   UNL     1      37.748  53.228  42.039  0.00  0.00    +0.000 OA
ATOM      3  N   UNL     1      37.592  53.689  44.281  0.00  0.00    +0.000 N 
ATOM      4  C   UNL     1      37.622  54.034  42.946  0.00  0.00    +0.000 C 
ATOM      5  H   UNL     1      37.279  54.461  44.866  0.00  0.00    +0.000 HD
BRANCH   4   6
ATOM      6  O   UNL     1      37.515  55.399  42.800  0.00  0.00    +0.000 OA
BRANCH   6   7
ATOM      7  C   UNL     1      36.231  56.109  42.913  0.00  0.00    +0.000 C 
ATOM      8  C   UNL     1      35.969  56.605  44.340  0.00  0.00    +0.000 C 
ATOM      9  C   UNL     1      36.235  57.352  41.975  0.00  0.00    +0.000 C 
ATOM     10  C   UNL     1      35.099  55.191  42.437  0.00  0.00    +0.000 C 
ENDBRANCH   6   7
ENDBRANCH   4   6
ENDBRANCH   1   3
BRANCH   1  11
ATOM     11  C   UNL     1      38.186  52.241  46.274  0.00  0.00    +0.000 C 
BRANCH  11  21
ATOM     12  O   UNL     1      37.032  54.220  47.069  0.00  0.00    +0.000 OA
ATOM     13  N   UNL     1      37.618  52.723  48.688  0.00  0.00    +0.000 N 
ATOM     14  N   UNL     1      36.521  51.242  50.778  0.00  0.00    +0.000 N 
ATOM     15  N   UNL     1      35.544  52.940  51.758  0.00  0.00    +0.000 NA
ATOM     16  N   UNL     1      35.128  51.785  52.361  0.00  0.00    +0.000 NA
ATOM     17  C   UNL     1      37.414  50.548  49.856  0.00  0.00    +0.000 C 
ATOM     18  C   UNL     1      37.000  53.538  49.761  0.00  0.00    +0.000 C 
ATOM     19  C   UNL     1      38.350  51.562  49.178  0.00  0.00    +0.000 C 
ATOM     20  C   UNL     1      36.359  52.613  50.760  0.00  0.00    +0.000 A 
ATOM     21  C   UNL     1      37.575  53.154  47.357  0.00  0.00    +0.000 C 
ATOM     22  C   UNL     1      38.303  49.491  50.522  0.00  0.00    +0.000 C 
ATOM     23  C   UNL     1      38.044  54.452  50.411  0.00  0.00    +0.000 C 
ATOM     24  C   UNL     1      35.666  50.749  51.738  0.00  0.00    +0.000 A 
BRANCH  24  28
ATOM     25  F   UNL     1      36.368  48.713  52.760  0.00  0.00    +0.000 F 
ATOM     26  F   UNL     1      35.266  48.562  50.911  0.00  0.00    +0.000 F 
ATOM     27  F   UNL     1      34.242  49.151  52.750  0.00  0.00    +0.000 F 
ATOM     28  C   UNL     1      35.388  49.313  52.036  0.00  0.00    +0.000 C 
ENDBRANCH  24  28
ENDBRANCH  11  21
ENDBRANCH   1  11
BRANCH   1  29
ATOM     29  C   UNL     1      36.087  51.723  44.838  0.00  0.00    +0.000 C 
BRANCH  29  33
ATOM     30  F   UNL     1      34.477  51.937  47.317  0.00  0.00    +0.000 F 
ATOM     31  F   UNL     1      36.191  46.969  45.900  0.00  0.00    +0.000 F 
ATOM     32  F   UNL     1      34.777  47.356  48.216  0.00  0.00    +0.000 F 
ATOM     33  C   UNL     1      35.698  50.590  45.772  0.00  0.00    +0.000 A 
ATOM     34  C   UNL     1      34.928  50.738  46.934  0.00  0.00    +0.000 A 
ATOM     35  C   UNL     1      36.095  49.281  45.425  0.00  0.00    +0.000 A 
ATOM     36  C   UNL     1      35.780  48.197  46.243  0.00  0.00    +0.000 A 
ATOM     37  C   UNL     1      34.619  49.658  47.758  0.00  0.00    +0.000 A 
ATOM     38  C   UNL     1      35.055  48.389  47.411  0.00  0.00    +0.000 A 
ENDBRANCH  29  33
ENDBRANCH   1  29
TORSDOF 8
ENDMDL
MODEL 3
REMARK VINA RESULT:      -8.3      2.415      3.967
REMARK  Name = 24777438
REMARK  13 active torsions:
REMARK  status: ('A' for Active; 'I' for Inactive)
REMARK    1  A    between atoms: O_8  and  C_28
REMARK    2  A    between atoms: O_8  and  C_29
REMARK    3  A    between atoms: N_14  and  C_24
REMARK    4  A    between atoms: C_15  and  C_20
REMARK    5  A    between atoms: C_16  and  C_21
REMARK    6  A    between atoms: C_19  and  C_22
REMARK    7  A    between atoms: C_22  and  C_24
REMARK    8  A    between atoms: C_23  and  C_26
REMARK    9  A    between atoms: C_24  and  C_25
REMARK   10  A    between atoms: C_25  and  C_27
REMARK   11  A    between atoms: C_29  and  C_32
REMARK   12  A    between atoms: C_29  and  C_33
REMARK   13  A    between atoms: C_29  and  C_34
REMARK                            x       y       z     vdW  Elec       q    Type
REMARK                         _______ _______ _______ _____ _____    ______ ____
ROOT
ATOM      1  C   UNL     1      53.679  70.114  38.205  0.00  0.00    +0.000 C 
ENDROOT
BRANCH   1   3
ATOM      2  O   UNL     1      53.432  71.109  40.993  0.00  0.00    +0.000 OA
ATOM      3  N   UNL     1      53.092  69.473  39.420  0.00  0.00    +0.000 N 
ATOM      4  C   UNL     1      52.953  70.034  40.673  0.00  0.00    +0.000 C 
ATOM      5  H   UNL     1      52.460  68.687  39.284  0.00  0.00    +0.000 HD
BRANCH   4   6
ATOM      6  O   UNL     1      52.226  69.201  41.494  0.00  0.00    +0.000 OA
BRANCH   6   7
ATOM      7  C   UNL     1      50.779  69.367  41.709  0.00  0.00    +0.000 C 
ATOM      8  C   UNL     1      50.383  69.135  43.171  0.00  0.00    +0.000 C 
ATOM      9  C   UNL     1      50.355  70.816  41.330  0.00  0.00    +0.000 C 
ATOM     10  C   UNL     1      50.016  68.417  40.779  0.00  0.00    +0.000 C 
ENDBRANCH   6   7
ENDBRANCH   4   6
ENDBRANCH   1   3
BRANCH   1  11
ATOM     11  C   UNL     1      54.890  69.300  37.643  0.00  0.00    +0.000 C 
BRANCH  11  21
ATOM     12  O   UNL     1      56.612  70.649  36.595  0.00  0.00    +0.000 OA
ATOM     13  N   UNL     1      57.050  70.012  38.741  0.00  0.00    +0.000 N 
ATOM     14  N   UNL     1      57.730  71.072  41.228  0.00  0.00    +0.000 N 
ATOM     15  N   UNL     1      59.445  72.230  40.509  0.00  0.00    +0.000 NA
ATOM     16  N   UNL     1      59.196  72.574  41.809  0.00  0.00    +0.000 NA
ATOM     17  C   UNL     1      56.656  70.085  41.186  0.00  0.00    +0.000 C 
ATOM     18  C   UNL     1      58.340  70.742  38.768  0.00  0.00    +0.000 C 
ATOM     19  C   UNL     1      56.805  69.207  39.932  0.00  0.00    +0.000 C 
ATOM     20  C   UNL     1      58.524  71.347  40.132  0.00  0.00    +0.000 A 
ATOM     21  C   UNL     1      56.247  70.033  37.595  0.00  0.00    +0.000 C 
ATOM     22  C   UNL     1      56.627  69.141  42.394  0.00  0.00    +0.000 C 
ATOM     23  C   UNL     1      59.495  69.808  38.391  0.00  0.00    +0.000 C 
ATOM     24  C   UNL     1      58.124  71.924  42.235  0.00  0.00    +0.000 A 
BRANCH  24  28
ATOM     25  F   UNL     1      57.823  71.134  44.463  0.00  0.00    +0.000 F 
ATOM     26  F   UNL     1      56.120  72.041  43.499  0.00  0.00    +0.000 F 
ATOM     27  F   UNL     1      57.798  73.282  44.147  0.00  0.00    +0.000 F 
ATOM     28  C   UNL     1      57.475  72.095  43.568  0.00  0.00    +0.000 C 
ENDBRANCH  24  28
ENDBRANCH  11  21
ENDBRANCH   1  11
BRANCH   1  29
ATOM     29  C   UNL     1      52.604  70.410  37.113  0.00  0.00    +0.000 C 
BRANCH  29  33
ATOM     30  F   UNL     1      52.183  73.325  37.455  0.00  0.00    +0.000 F 
ATOM     31  F   UNL     1      47.849  70.101  38.128  0.00  0.00    +0.000 F 
ATOM     32  F   UNL     1      47.654  72.808  38.505  0.00  0.00    +0.000 F 
ATOM     33  C   UNL     1      51.303  71.106  37.473  0.00  0.00    +0.000 A 
ATOM     34  C   UNL     1      51.149  72.492  37.620  0.00  0.00    +0.000 A 
ATOM     35  C   UNL     1      50.148  70.311  37.625  0.00  0.00    +0.000 A 
ATOM     36  C   UNL     1      48.923  70.884  37.966  0.00  0.00    +0.000 A 
ATOM     37  C   UNL     1      49.929  73.067  37.968  0.00  0.00    +0.000 A 
ATOM     38  C   UNL     1      48.820  72.256  38.148  0.00  0.00    +0.000 A 
ENDBRANCH  29  33
ENDBRANCH   1  29
TORSDOF 8
ENDMDL
MODEL 4
REMARK VINA RESULT:      -8.2     16.858     20.199
REMARK  Name = 24777438
REMARK  13 active torsions:
REMARK  status: ('A' for Active; 'I' for Inactive)
REMARK    1  A    between atoms: O_8  and  C_28
REMARK    2  A    between atoms: O_8  and  C_29
REMARK    3  A    between atoms: N_14  and  C_24
REMARK    4  A    between atoms: C_15  and  C_20
REMARK    5  A    between atoms: C_16  and  C_21
REMARK    6  A    between atoms: C_19  and  C_22
REMARK    7  A    between atoms: C_22  and  C_24
REMARK    8  A    between atoms: C_23  and  C_26
REMARK    9  A    between atoms: C_24  and  C_25
REMARK   10  A    between atoms: C_25  and  C_27
REMARK   11  A    between atoms: C_29  and  C_32
REMARK   12  A    between atoms: C_29  and  C_33
REMARK   13  A    between atoms: C_29  and  C_34
REMARK                            x       y       z     vdW  Elec       q    Type
REMARK                         _______ _______ _______ _____ _____    ______ ____
ROOT
ATOM      1  C   UNL     1      48.743  50.962  35.587  0.00  0.00    +0.000 C 
ENDROOT
BRANCH   1   3
ATOM      2  O   UNL     1      48.884  53.556  34.148  0.00  0.00    +0.000 OA
ATOM      3  N   UNL     1      49.747  52.066  35.665  0.00  0.00    +0.000 N 
ATOM      4  C   UNL     1      49.704  53.279  35.008  0.00  0.00    +0.000 C 
ATOM      5  H   UNL     1      50.358  52.096  36.478  0.00  0.00    +0.000 HD
BRANCH   4   6
ATOM      6  O   UNL     1      50.718  54.099  35.447  0.00  0.00    +0.000 OA
BRANCH   6   7
ATOM      7  C   UNL     1      50.554  55.024  36.580  0.00  0.00    +0.000 C 
ATOM      8  C   UNL     1      49.090  55.145  37.019  0.00  0.00    +0.000 C 
ATOM      9  C   UNL     1      51.372  54.509  37.801  0.00  0.00    +0.000 C 
ATOM     10  C   UNL     1      51.126  56.396  36.203  0.00  0.00    +0.000 C 
ENDBRANCH   6   7
ENDBRANCH   4   6
ENDBRANCH   1   3
BRANCH   1  11
ATOM     11  C   UNL     1      49.424  49.554  35.560  0.00  0.00    +0.000 C 
BRANCH  11  21
ATOM     12  O   UNL     1      51.015  49.617  33.731  0.00  0.00    +0.000 OA
ATOM     13  N   UNL     1      51.926  49.308  35.799  0.00  0.00    +0.000 N 
ATOM     14  N   UNL     1      53.849  50.378  37.510  0.00  0.00    +0.000 N 
ATOM     15  N   UNL     1      55.480  50.351  36.048  0.00  0.00    +0.000 NA
ATOM     16  N   UNL     1      55.895  51.035  37.157  0.00  0.00    +0.000 NA
ATOM     17  C   UNL     1      52.538  50.072  38.075  0.00  0.00    +0.000 C 
ATOM     18  C   UNL     1      53.308  49.286  35.263  0.00  0.00    +0.000 C 
ATOM     19  C   UNL     1      51.843  48.999  37.222  0.00  0.00    +0.000 C 
ATOM     20  C   UNL     1      54.215  49.987  36.237  0.00  0.00    +0.000 A 
ATOM     21  C   UNL     1      50.835  49.487  34.941  0.00  0.00    +0.000 C 
ATOM     22  C   UNL     1      52.586  49.542  39.513  0.00  0.00    +0.000 C 
ATOM     23  C   UNL     1      53.758  47.847  34.990  0.00  0.00    +0.000 C 
ATOM     24  C   UNL     1      54.897  51.109  38.023  0.00  0.00    +0.000 A 
BRANCH  24  28
ATOM     25  F   UNL     1      53.787  52.564  39.550  0.00  0.00    +0.000 F 
ATOM     26  F   UNL     1      55.929  52.758  39.380  0.00  0.00    +0.000 F 
ATOM     27  F   UNL     1      55.064  51.019  40.383  0.00  0.00    +0.000 F 
ATOM     28  C   UNL     1      54.920  51.851  39.318  0.00  0.00    +0.000 C 
ENDBRANCH  24  28
ENDBRANCH  11  21
ENDBRANCH   1  11
BRANCH   1  29
ATOM     29  C   UNL     1      47.653  51.073  36.699  0.00  0.00    +0.000 C 
BRANCH  29  33
ATOM     30  F   UNL     1      45.306  50.175  38.272  0.00  0.00    +0.000 F 
ATOM     31  F   UNL     1      44.305  52.806  33.613  0.00  0.00    +0.000 F 
ATOM     32  F   UNL     1      42.250  51.822  35.136  0.00  0.00    +0.000 F 
ATOM     33  C   UNL     1      46.189  51.256  36.335  0.00  0.00    +0.000 A 
ATOM     34  C   UNL     1      45.110  50.818  37.115  0.00  0.00    +0.000 A 
ATOM     35  C   UNL     1      45.885  51.960  35.152  0.00  0.00    +0.000 A 
ATOM     36  C   UNL     1      44.562  52.154  34.754  0.00  0.00    +0.000 A 
ATOM     37  C   UNL     1      43.788  51.002  36.716  0.00  0.00    +0.000 A 
ATOM     38  C   UNL     1      43.520  51.665  35.529  0.00  0.00    +0.000 A 
ENDBRANCH  29  33
ENDBRANCH   1  29
TORSDOF 8
ENDMDL
MODEL 5
REMARK VINA RESULT:      -7.9     25.146     27.445
REMARK  Name = 24777438
REMARK  13 active torsions:
REMARK  status: ('A' for Active; 'I' for Inactive)
REMARK    1  A    between atoms: O_8  and  C_28
REMARK    2  A    between atoms: O_8  and  C_29
REMARK    3  A    between atoms: N_14  and  C_24
REMARK    4  A    between atoms: C_15  and  C_20
REMARK    5  A    between atoms: C_16  and  C_21
REMARK    6  A    between atoms: C_19  and  C_22
REMARK    7  A    between atoms: C_22  and  C_24
REMARK    8  A    between atoms: C_23  and  C_26
REMARK    9  A    between atoms: C_24  and  C_25
REMARK   10  A    between atoms: C_25  and  C_27
REMARK   11  A    between atoms: C_29  and  C_32
REMARK   12  A    between atoms: C_29  and  C_33
REMARK   13  A    between atoms: C_29  and  C_34
REMARK                            x       y       z     vdW  Elec       q    Type
REMARK                         _______ _______ _______ _____ _____    ______ ____
ROOT
ATOM      1  C   UNL     1      37.272  49.664  45.961  0.00  0.00    +0.000 C 
ENDROOT
BRANCH   1   3
ATOM      2  O   UNL     1      38.574  50.738  48.405  0.00  0.00    +0.000 OA
ATOM      3  N   UNL     1      37.315  49.132  47.357  0.00  0.00    +0.000 N 
ATOM      4  C   UNL     1      37.888  49.731  48.460  0.00  0.00    +0.000 C 
ATOM      5  H   UNL     1      36.622  48.435  47.621  0.00  0.00    +0.000 HD
BRANCH   4   6
ATOM      6  O   UNL     1      37.593  49.020  49.601  0.00  0.00    +0.000 OA
BRANCH   6   7
ATOM      7  C   UNL     1      36.735  49.559  50.669  0.00  0.00    +0.000 C 
ATOM      8  C   UNL     1      35.388  50.056  50.132  0.00  0.00    +0.000 C 
ATOM      9  C   UNL     1      36.442  48.446  51.718  0.00  0.00    +0.000 C 
ATOM     10  C   UNL     1      37.480  50.681  51.401  0.00  0.00    +0.000 C 
ENDBRANCH   6   7
ENDBRANCH   4   6
ENDBRANCH   1   3
BRANCH   1  11
ATOM     11  C   UNL     1      37.971  48.700  44.948  0.00  0.00    +0.000 C 
BRANCH  11  21
ATOM     12  O   UNL     1      39.252  47.180  46.337  0.00  0.00    +0.000 OA
ATOM     13  N   UNL     1      40.467  48.341  44.794  0.00  0.00    +0.000 N 
ATOM     14  N   UNL     1      42.267  47.950  42.702  0.00  0.00    +0.000 N 
ATOM     15  N   UNL     1      43.655  46.697  43.842  0.00  0.00    +0.000 NA
ATOM     16  N   UNL     1      44.026  46.679  42.526  0.00  0.00    +0.000 NA
ATOM     17  C   UNL     1      41.155  48.867  42.473  0.00  0.00    +0.000 C 
ATOM     18  C   UNL     1      41.732  47.676  45.187  0.00  0.00    +0.000 C 
ATOM     19  C   UNL     1      40.643  49.409  43.817  0.00  0.00    +0.000 C 
ATOM     20  C   UNL     1      42.553  47.433  43.950  0.00  0.00    +0.000 A 
ATOM     21  C   UNL     1      39.265  48.016  45.434  0.00  0.00    +0.000 C 
ATOM     22  C   UNL     1      41.513  50.079  41.606  0.00  0.00    +0.000 C 
ATOM     23  C   UNL     1      42.484  48.517  46.222  0.00  0.00    +0.000 C 
ATOM     24  C   UNL     1      43.159  47.385  41.818  0.00  0.00    +0.000 A 
BRANCH  24  28
ATOM     25  F   UNL     1      43.700  48.706  39.910  0.00  0.00    +0.000 F 
ATOM     26  F   UNL     1      41.912  47.505  39.804  0.00  0.00    +0.000 F 
ATOM     27  F   UNL     1      43.876  46.551  39.722  0.00  0.00    +0.000 F 
ATOM     28  C   UNL     1      43.162  47.533  40.333  0.00  0.00    +0.000 C 
ENDBRANCH  24  28
ENDBRANCH  11  21
ENDBRANCH   1  11
BRANCH   1  29
ATOM     29  C   UNL     1      35.825  50.044  45.517  0.00  0.00    +0.000 C 
BRANCH  29  33
ATOM     30  F   UNL     1      35.434  52.073  43.391  0.00  0.00    +0.000 F 
ATOM     31  F   UNL     1      34.111  53.521  48.469  0.00  0.00    +0.000 F 
ATOM     32  F   UNL     1      33.905  55.310  46.403  0.00  0.00    +0.000 F 
ATOM     33  C   UNL     1      35.305  51.461  45.695  0.00  0.00    +0.000 A 
ATOM     34  C   UNL     1      35.132  52.386  44.656  0.00  0.00    +0.000 A 
ATOM     35  C   UNL     1      34.921  51.867  46.990  0.00  0.00    +0.000 A 
ATOM     36  C   UNL     1      34.446  53.157  47.225  0.00  0.00    +0.000 A 
ATOM     37  C   UNL     1      34.665  53.679  44.888  0.00  0.00    +0.000 A 
ATOM     38  C   UNL     1      34.331  54.060  46.178  0.00  0.00    +0.000 A 
ENDBRANCH  29  33
ENDBRANCH   1  29
TORSDOF 8
ENDMDL
MODEL 6
REMARK VINA RESULT:      -7.8      2.823      7.531
REMARK  Name = 24777438
REMARK  13 active torsions:
REMARK  status: ('A' for Active; 'I' for Inactive)
REMARK    1  A    between atoms: O_8  and  C_28
REMARK    2  A    between atoms: O_8  and  C_29
REMARK    3  A    between atoms: N_14  and  C_24
REMARK    4  A    between atoms: C_15  and  C_20
REMARK    5  A    between atoms: C_16  and  C_21
REMARK    6  A    between atoms: C_19  and  C_22
REMARK    7  A    between atoms: C_22  and  C_24
REMARK    8  A    between atoms: C_23  and  C_26
REMARK    9  A    between atoms: C_24  and  C_25
REMARK   10  A    between atoms: C_25  and  C_27
REMARK   11  A    between atoms: C_29  and  C_32
REMARK   12  A    between atoms: C_29  and  C_33
REMARK   13  A    between atoms: C_29  and  C_34
REMARK                            x       y       z     vdW  Elec       q    Type
REMARK                         _______ _______ _______ _____ _____    ______ ____
ROOT
ATOM      1  C   UNL     1      55.995  69.966  39.271  0.00  0.00    +0.000 C 
ENDROOT
BRANCH   1   3
ATOM      2  O   UNL     1      55.340  71.086  36.599  0.00  0.00    +0.000 OA
ATOM      3  N   UNL     1      56.632  69.742  37.937  0.00  0.00    +0.000 N 
ATOM      4  C   UNL     1      56.309  70.358  36.746  0.00  0.00    +0.000 C 
ATOM      5  H   UNL     1      57.570  69.349  37.919  0.00  0.00    +0.000 HD
BRANCH   4   6
ATOM      6  O   UNL     1      57.213  70.015  35.767  0.00  0.00    +0.000 OA
BRANCH   6   7
ATOM      7  C   UNL     1      57.086  68.786  34.967  0.00  0.00    +0.000 C 
ATOM      8  C   UNL     1      55.759  68.064  35.226  0.00  0.00    +0.000 C 
ATOM      9  C   UNL     1      57.143  69.139  33.452  0.00  0.00    +0.000 C 
ATOM     10  C   UNL     1      58.276  67.865  35.259  0.00  0.00    +0.000 C 
ENDBRANCH   6   7
ENDBRANCH   4   6
ENDBRANCH   1   3
BRANCH   1  11
ATOM     11  C   UNL     1      54.667  69.155  39.427  0.00  0.00    +0.000 C 
BRANCH  11  21
ATOM     12  O   UNL     1      54.295  69.649  41.772  0.00  0.00    +0.000 OA
ATOM     13  N   UNL     1      52.421  69.649  40.471  0.00  0.00    +0.000 N 
ATOM     14  N   UNL     1      50.251  71.258  39.785  0.00  0.00    +0.000 N 
ATOM     15  N   UNL     1      49.636  71.683  41.844  0.00  0.00    +0.000 NA
ATOM     16  N   UNL     1      48.911  72.475  40.996  0.00  0.00    +0.000 NA
ATOM     17  C   UNL     1      50.967  70.592  38.701  0.00  0.00    +0.000 C 
ATOM     18  C   UNL     1      51.547  70.022  41.609  0.00  0.00    +0.000 C 
ATOM     19  C   UNL     1      51.693  69.351  39.243  0.00  0.00    +0.000 C 
ATOM     20  C   UNL     1      50.490  70.971  41.114  0.00  0.00    +0.000 A 
ATOM     21  C   UNL     1      53.799  69.490  40.657  0.00  0.00    +0.000 C 
ATOM     22  C   UNL     1      50.066  70.121  37.553  0.00  0.00    +0.000 C 
ATOM     23  C   UNL     1      50.942  68.772  42.255  0.00  0.00    +0.000 C 
ATOM     24  C   UNL     1      49.317  72.269  39.753  0.00  0.00    +0.000 A 
BRANCH  24  28
ATOM     25  F   UNL     1      48.169  74.150  38.845  0.00  0.00    +0.000 F 
ATOM     26  F   UNL     1      47.972  72.274  37.799  0.00  0.00    +0.000 F 
ATOM     27  F   UNL     1      49.860  73.372  37.730  0.00  0.00    +0.000 F 
ATOM     28  C   UNL     1      48.837  73.006  38.547  0.00  0.00    +0.000 C 
ENDBRANCH  24  28
ENDBRANCH  11  21
ENDBRANCH   1  11
BRANCH   1  29
ATOM     29  C   UNL     1      56.986  69.715  40.450  0.00  0.00    +0.000 C 
BRANCH  29  33
ATOM     30  F   UNL     1      59.367  71.142  39.408  0.00  0.00    +0.000 F 
ATOM     31  F   UNL     1      57.335  72.856  44.158  0.00  0.00    +0.000 F 
ATOM     32  F   UNL     1      59.591  74.001  43.104  0.00  0.00    +0.000 F 
ATOM     33  C   UNL     1      57.716  70.873  41.110  0.00  0.00    +0.000 A 
ATOM     34  C   UNL     1      58.838  71.522  40.576  0.00  0.00    +0.000 A 
ATOM     35  C   UNL     1      57.203  71.369  42.327  0.00  0.00    +0.000 A 
ATOM     36  C   UNL     1      57.831  72.423  42.991  0.00  0.00    +0.000 A 
ATOM     37  C   UNL     1      59.472  72.569  41.241  0.00  0.00    +0.000 A 
ATOM     38  C   UNL     1      58.967  73.010  42.454  0.00  0.00    +0.000 A 
ENDBRANCH  29  33
ENDBRANCH   1  29
TORSDOF 8
ENDMDL
MODEL 7
REMARK VINA RESULT:      -7.7     18.678     20.576
REMARK  Name = 24777438
REMARK  13 active torsions:
REMARK  status: ('A' for Active; 'I' for Inactive)
REMARK    1  A    between atoms: O_8  and  C_28
REMARK    2  A    between atoms: O_8  and  C_29
REMARK    3  A    between atoms: N_14  and  C_24
REMARK    4  A    between atoms: C_15  and  C_20
REMARK    5  A    between atoms: C_16  and  C_21
REMARK    6  A    between atoms: C_19  and  C_22
REMARK    7  A    between atoms: C_22  and  C_24
REMARK    8  A    between atoms: C_23  and  C_26
REMARK    9  A    between atoms: C_24  and  C_25
REMARK   10  A    between atoms: C_25  and  C_27
REMARK   11  A    between atoms: C_29  and  C_32
REMARK   12  A    between atoms: C_29  and  C_33
REMARK   13  A    between atoms: C_29  and  C_34
REMARK                            x       y       z     vdW  Elec       q    Type
REMARK                         _______ _______ _______ _____ _____    ______ ____
ROOT
ATOM      1  C   UNL     1      49.827  50.197  38.003  0.00  0.00    +0.000 C 
ENDROOT
BRANCH   1   3
ATOM      2  O   UNL     1      52.087  48.460  37.169  0.00  0.00    +0.000 OA
ATOM      3  N   UNL     1      50.899  50.413  36.984  0.00  0.00    +0.000 N 
ATOM      4  C   UNL     1      51.880  49.521  36.605  0.00  0.00    +0.000 C 
ATOM      5  H   UNL     1      50.747  51.132  36.280  0.00  0.00    +0.000 HD
BRANCH   4   6
ATOM      6  O   UNL     1      52.587  50.013  35.531  0.00  0.00    +0.000 OA
BRANCH   6   7
ATOM      7  C   UNL     1      52.276  49.643  34.141  0.00  0.00    +0.000 C 
ATOM      8  C   UNL     1      50.784  49.347  33.944  0.00  0.00    +0.000 C 
ATOM      9  C   UNL     1      52.654  50.815  33.189  0.00  0.00    +0.000 C 
ATOM     10  C   UNL     1      53.130  48.438  33.732  0.00  0.00    +0.000 C 
ENDBRANCH   6   7
ENDBRANCH   4   6
ENDBRANCH   1   3
BRANCH   1  11
ATOM     11  C   UNL     1      50.215  50.795  39.395  0.00  0.00    +0.000 C 
BRANCH  11  21
ATOM     12  O   UNL     1      48.979  49.045  40.532  0.00  0.00    +0.000 OA
ATOM     13  N   UNL     1      50.138  50.458  41.897  0.00  0.00    +0.000 N 
ATOM     14  N   UNL     1      52.042  50.440  43.933  0.00  0.00    +0.000 N 
ATOM     15  N   UNL     1      50.990  48.997  45.201  0.00  0.00    +0.000 NA
ATOM     16  N   UNL     1      52.236  49.214  45.722  0.00  0.00    +0.000 NA
ATOM     17  C   UNL     1      52.232  51.389  42.839  0.00  0.00    +0.000 C 
ATOM     18  C   UNL     1      49.726  49.728  43.119  0.00  0.00    +0.000 C 
ATOM     19  C   UNL     1      50.881  51.684  42.167  0.00  0.00    +0.000 C 
ATOM     20  C   UNL     1      50.881  49.707  44.082  0.00  0.00    +0.000 A 
ATOM     21  C   UNL     1      49.711  50.029  40.635  0.00  0.00    +0.000 C 
ATOM     22  C   UNL     1      52.821  52.736  43.275  0.00  0.00    +0.000 C 
ATOM     23  C   UNL     1      48.476  50.367  43.732  0.00  0.00    +0.000 C 
ATOM     24  C   UNL     1      52.902  50.039  44.930  0.00  0.00    +0.000 A 
BRANCH  24  28
ATOM     25  F   UNL     1      55.030  50.456  43.940  0.00  0.00    +0.000 F 
ATOM     26  F   UNL     1      55.013  49.622  45.930  0.00  0.00    +0.000 F 
ATOM     27  F   UNL     1      54.438  51.707  45.612  0.00  0.00    +0.000 F 
ATOM     28  C   UNL     1      54.326  50.452  45.102  0.00  0.00    +0.000 C 
ENDBRANCH  24  28
ENDBRANCH  11  21
ENDBRANCH   1  11
BRANCH   1  29
ATOM     29  C   UNL     1      48.432  50.694  37.510  0.00  0.00    +0.000 C 
BRANCH  29  33
ATOM     30  F   UNL     1      48.965  53.563  38.038  0.00  0.00    +0.000 F 
ATOM     31  F   UNL     1      47.490  52.209  32.977  0.00  0.00    +0.000 F 
ATOM     32  F   UNL     1      47.922  54.829  33.657  0.00  0.00    +0.000 F 
ATOM     33  C   UNL     1      48.323  51.839  36.517  0.00  0.00    +0.000 A 
ATOM     34  C   UNL     1      48.590  53.183  36.811  0.00  0.00    +0.000 A 
ATOM     35  C   UNL     1      47.974  51.528  35.186  0.00  0.00    +0.000 A 
ATOM     36  C   UNL     1      47.846  52.532  34.226  0.00  0.00    +0.000 A 
ATOM     37  C   UNL     1      48.455  54.190  35.857  0.00  0.00    +0.000 A 
ATOM     38  C   UNL     1      48.074  53.858  34.567  0.00  0.00    +0.000 A 
ENDBRANCH  29  33
ENDBRANCH   1  29
TORSDOF 8
ENDMDL
MODEL 8
REMARK VINA RESULT:      -7.6     18.449     20.879
REMARK  Name = 24777438
REMARK  13 active torsions:
REMARK  status: ('A' for Active; 'I' for Inactive)
REMARK    1  A    between atoms: O_8  and  C_28
REMARK    2  A    between atoms: O_8  and  C_29
REMARK    3  A    between atoms: N_14  and  C_24
REMARK    4  A    between atoms: C_15  and  C_20
REMARK    5  A    between atoms: C_16  and  C_21
REMARK    6  A    between atoms: C_19  and  C_22
REMARK    7  A    between atoms: C_22  and  C_24
REMARK    8  A    between atoms: C_23  and  C_26
REMARK    9  A    between atoms: C_24  and  C_25
REMARK   10  A    between atoms: C_25  and  C_27
REMARK   11  A    between atoms: C_29  and  C_32
REMARK   12  A    between atoms: C_29  and  C_33
REMARK   13  A    between atoms: C_29  and  C_34
REMARK                            x       y       z     vdW  Elec       q    Type
REMARK                         _______ _______ _______ _____ _____    ______ ____
ROOT
ATOM      1  C   UNL     1      48.543  52.297  36.504  0.00  0.00    +0.000 C 
ENDROOT
BRANCH   1   3
ATOM      2  O   UNL     1      48.500  51.289  39.297  0.00  0.00    +0.000 OA
ATOM      3  N   UNL     1      49.349  51.227  37.167  0.00  0.00    +0.000 N 
ATOM      4  C   UNL     1      49.220  50.768  38.462  0.00  0.00    +0.000 C 
ATOM      5  H   UNL     1      49.827  50.554  36.572  0.00  0.00    +0.000 HD
BRANCH   4   6
ATOM      6  O   UNL     1      50.027  49.672  38.666  0.00  0.00    +0.000 OA
BRANCH   6   7
ATOM      7  C   UNL     1      51.317  49.758  39.370  0.00  0.00    +0.000 C 
ATOM      8  C   UNL     1      51.827  51.201  39.464  0.00  0.00    +0.000 C 
ATOM      9  C   UNL     1      51.159  49.218  40.822  0.00  0.00    +0.000 C 
ATOM     10  C   UNL     1      52.341  48.862  38.666  0.00  0.00    +0.000 C 
ENDBRANCH   6   7
ENDBRANCH   4   6
ENDBRANCH   1   3
BRANCH   1  11
ATOM     11  C   UNL     1      49.444  53.449  35.951  0.00  0.00    +0.000 C 
BRANCH  11  21
ATOM     12  O   UNL     1      50.998  54.207  37.651  0.00  0.00    +0.000 OA
ATOM     13  N   UNL     1      51.928  52.989  35.962  0.00  0.00    +0.000 N 
ATOM     14  N   UNL     1      53.508  50.735  35.520  0.00  0.00    +0.000 N 
ATOM     15  N   UNL     1      55.117  51.328  36.883  0.00  0.00    +0.000 NA
ATOM     16  N   UNL     1      55.338  50.041  36.475  0.00  0.00    +0.000 NA
ATOM     17  C   UNL     1      52.303  50.884  34.709  0.00  0.00    +0.000 C 
ATOM     18  C   UNL     1      53.281  53.058  36.563  0.00  0.00    +0.000 C 
ATOM     19  C   UNL     1      51.902  52.367  34.643  0.00  0.00    +0.000 C 
ATOM     20  C   UNL     1      53.976  51.743  36.340  0.00  0.00    +0.000 A 
ATOM     21  C   UNL     1      50.838  53.598  36.594  0.00  0.00    +0.000 C 
ATOM     22  C   UNL     1      52.457  50.395  33.265  0.00  0.00    +0.000 C 
ATOM     23  C   UNL     1      54.071  54.233  35.978  0.00  0.00    +0.000 C 
ATOM     24  C   UNL     1      54.339  49.653  35.698  0.00  0.00    +0.000 A 
BRANCH  24  28
ATOM     25  F   UNL     1      53.029  47.667  35.548  0.00  0.00    +0.000 F 
ATOM     26  F   UNL     1      55.173  47.444  35.466  0.00  0.00    +0.000 F 
ATOM     27  F   UNL     1      54.097  48.303  33.768  0.00  0.00    +0.000 F 
ATOM     28  C   UNL     1      54.163  48.285  35.126  0.00  0.00    +0.000 C 
ENDBRANCH  24  28
ENDBRANCH  11  21
ENDBRANCH   1  11
BRANCH   1  29
ATOM     29  C   UNL     1      47.579  51.724  35.419  0.00  0.00    +0.000 C 
BRANCH  29  33
ATOM     30  F   UNL     1      45.302  52.374  33.635  0.00  0.00    +0.000 F 
ATOM     31  F   UNL     1      44.107  50.201  38.480  0.00  0.00    +0.000 F 
ATOM     32  F   UNL     1      42.117  50.952  36.752  0.00  0.00    +0.000 F 
ATOM     33  C   UNL     1      46.102  51.529  35.719  0.00  0.00    +0.000 A 
ATOM     34  C   UNL     1      45.057  51.847  34.839  0.00  0.00    +0.000 A 
ATOM     35  C   UNL     1      45.749  50.939  36.951  0.00  0.00    +0.000 A 
ATOM     36  C   UNL     1      44.412  50.741  37.293  0.00  0.00    +0.000 A 
ATOM     37  C   UNL     1      43.720  51.658  35.182  0.00  0.00    +0.000 A 
ATOM     38  C   UNL     1      43.403  51.111  36.415  0.00  0.00    +0.000 A 
ENDBRANCH  29  33
ENDBRANCH   1  29
TORSDOF 8
ENDMDL
MODEL 9
REMARK VINA RESULT:      -7.0     18.465     22.374
REMARK  Name = 24777438
REMARK  13 active torsions:
REMARK  status: ('A' for Active; 'I' for Inactive)
REMARK    1  A    between atoms: O_8  and  C_28
REMARK    2  A    between atoms: O_8  and  C_29
REMARK    3  A    between atoms: N_14  and  C_24
REMARK    4  A    between atoms: C_15  and  C_20
REMARK    5  A    between atoms: C_16  and  C_21
REMARK    6  A    between atoms: C_19  and  C_22
REMARK    7  A    between atoms: C_22  and  C_24
REMARK    8  A    between atoms: C_23  and  C_26
REMARK    9  A    between atoms: C_24  and  C_25
REMARK   10  A    between atoms: C_25  and  C_27
REMARK   11  A    between atoms: C_29  and  C_32
REMARK   12  A    between atoms: C_29  and  C_33
REMARK   13  A    between atoms: C_29  and  C_34
REMARK                            x       y       z     vdW  Elec       q    Type
REMARK                         _______ _______ _______ _____ _____    ______ ____
ROOT
ATOM      1  C   UNL     1      48.559  51.169  37.080  0.00  0.00    +0.000 C 
ENDROOT
BRANCH   1   3
ATOM      2  O   UNL     1      50.084  53.437  38.242  0.00  0.00    +0.000 OA
ATOM      3  N   UNL     1      49.476  52.159  36.437  0.00  0.00    +0.000 N 
ATOM      4  C   UNL     1      50.205  53.148  37.064  0.00  0.00    +0.000 C 
ATOM      5  H   UNL     1      49.856  51.929  35.521  0.00  0.00    +0.000 HD
BRANCH   4   6
ATOM      6  O   UNL     1      51.053  53.760  36.169  0.00  0.00    +0.000 OA
BRANCH   6   7
ATOM      7  C   UNL     1      52.519  53.682  36.287  0.00  0.00    +0.000 C 
ATOM      8  C   UNL     1      53.216  53.845  34.931  0.00  0.00    +0.000 C 
ATOM      9  C   UNL     1      53.030  54.819  37.220  0.00  0.00    +0.000 C 
ATOM     10  C   UNL     1      52.906  52.353  36.944  0.00  0.00    +0.000 C 
ENDBRANCH   6   7
ENDBRANCH   4   6
ENDBRANCH   1   3
BRANCH   1  11
ATOM     11  C   UNL     1      47.110  51.252  36.499  0.00  0.00    +0.000 C 
BRANCH  11  21
ATOM     12  O   UNL     1      46.736  53.649  36.488  0.00  0.00    +0.000 OA
ATOM     13  N   UNL     1      45.080  52.413  37.455  0.00  0.00    +0.000 N 
ATOM     14  N   UNL     1      42.330  51.981  37.323  0.00  0.00    +0.000 N 
ATOM     15  N   UNL     1      41.771  54.093  37.485  0.00  0.00    +0.000 NA
ATOM     16  N   UNL     1      40.653  53.363  37.184  0.00  0.00    +0.000 NA
ATOM     17  C   UNL     1      43.195  50.807  37.376  0.00  0.00    +0.000 C 
ATOM     18  C   UNL     1      44.255  53.612  37.737  0.00  0.00    +0.000 C 
ATOM     19  C   UNL     1      44.540  51.181  38.020  0.00  0.00    +0.000 C 
ATOM     20  C   UNL     1      42.808  53.261  37.525  0.00  0.00    +0.000 A 
ATOM     21  C   UNL     1      46.318  52.538  36.814  0.00  0.00    +0.000 C 
ATOM     22  C   UNL     1      42.618  49.640  38.186  0.00  0.00    +0.000 C 
ATOM     23  C   UNL     1      44.521  54.128  39.154  0.00  0.00    +0.000 C 
ATOM     24  C   UNL     1      40.990  52.094  37.026  0.00  0.00    +0.000 A 
BRANCH  24  28
ATOM     25  F   UNL     1      40.630  50.144  35.703  0.00  0.00    +0.000 F 
ATOM     26  F   UNL     1      38.947  51.459  36.002  0.00  0.00    +0.000 F 
ATOM     27  F   UNL     1      39.677  50.226  37.652  0.00  0.00    +0.000 F 
ATOM     28  C   UNL     1      40.073  50.995  36.603  0.00  0.00    +0.000 C 
ENDBRANCH  24  28
ENDBRANCH  11  21
ENDBRANCH   1  11
BRANCH   1  29
ATOM     29  C   UNL     1      49.133  49.718  37.039  0.00  0.00    +0.000 C 
BRANCH  29  33
ATOM     30  F   UNL     1      49.158  49.852  34.077  0.00  0.00    +0.000 F 
ATOM     31  F   UNL     1      53.743  48.231  36.521  0.00  0.00    +0.000 F 
ATOM     32  F   UNL     1      53.566  48.315  33.788  0.00  0.00    +0.000 F 
ATOM     33  C   UNL     1      50.291  49.366  36.121  0.00  0.00    +0.000 A 
ATOM     34  C   UNL     1      50.258  49.450  34.722  0.00  0.00    +0.000 A 
ATOM     35  C   UNL     1      51.509  48.972  36.714  0.00  0.00    +0.000 A 
ATOM     36  C   UNL     1      52.608  48.625  35.930  0.00  0.00    +0.000 A 
ATOM     37  C   UNL     1      51.353  49.096  33.935  0.00  0.00    +0.000 A 
ATOM     38  C   UNL     1      52.524  48.677  34.546  0.00  0.00    +0.000 A 
ENDBRANCH  29  33
ENDBRANCH   1  29
TORSDOF 8
ENDMDL
