MODEL 1
REMARK VINA RESULT:      -8.7      0.000      0.000
REMARK  Name = 24776586
REMARK  8 active torsions:
REMARK  status: ('A' for Active; 'I' for Inactive)
REMARK    1  A    between atoms: N_15  and  C_24
REMARK    2  A    between atoms: C_16  and  C_20
REMARK    3  A    between atoms: C_20  and  C_25
REMARK    4  A    between atoms: C_21  and  C_22
REMARK    5  A    between atoms: C_22  and  C_24
REMARK    6  A    between atoms: C_23  and  C_27
REMARK    7  A    between atoms: C_24  and  C_26
REMARK    8  A    between atoms: C_26  and  C_28
REMARK                            x       y       z     vdW  Elec       q    Type
REMARK                         _______ _______ _______ _____ _____    ______ ____
ROOT
ATOM      1  O   UNL     1      54.617  71.414  36.850  0.00  0.00    +0.000 OA
ATOM      2  N   UNL     1      55.163  70.738  38.970  0.00  0.00    +0.000 N 
ATOM      3  N   UNL     1      56.737  71.583  41.135  0.00  0.00    +0.000 N 
ATOM      4  N   UNL     1      58.520  72.001  39.946  0.00  0.00    +0.000 NA
ATOM      5  N   UNL     1      58.762  72.379  41.240  0.00  0.00    +0.000 NA
ATOM      6  C   UNL     1      56.608  70.955  38.695  0.00  0.00    +0.000 C 
ATOM      7  C   UNL     1      54.781  70.305  40.324  0.00  0.00    +0.000 C 
ATOM      8  C   UNL     1      57.300  71.517  39.890  0.00  0.00    +0.000 A 
ATOM      9  C   UNL     1      55.371  71.206  41.410  0.00  0.00    +0.000 C 
ATOM     10  C   UNL     1      54.247  71.019  37.954  0.00  0.00    +0.000 C 
ATOM     11  C   UNL     1      57.680  72.118  41.965  0.00  0.00    +0.000 A 
ENDROOT
BRANCH  11  15
ATOM     12  F   UNL     1      57.762  71.231  44.157  0.00  0.00    +0.000 F 
ATOM     13  F   UNL     1      58.391  73.294  43.884  0.00  0.00    +0.000 F 
ATOM     14  F   UNL     1      56.276  72.762  43.751  0.00  0.00    +0.000 F 
ATOM     15  C   UNL     1      57.528  72.353  43.422  0.00  0.00    +0.000 C 
ENDBRANCH  11  15
BRANCH   6  16
ATOM     16  C   UNL     1      57.368  69.760  38.101  0.00  0.00    +0.000 C 
BRANCH  16  20
ATOM     17  F   UNL     1      59.522  70.358  37.218  0.00  0.00    +0.000 F 
ATOM     18  F   UNL     1      57.761  71.043  36.153  0.00  0.00    +0.000 F 
ATOM     19  F   UNL     1      58.311  68.942  36.111  0.00  0.00    +0.000 F 
ATOM     20  C   UNL     1      58.253  70.036  36.905  0.00  0.00    +0.000 C 
ENDBRANCH  16  20
ENDBRANCH   6  16
BRANCH  10  21
ATOM     21  C   UNL     1      52.769  70.823  38.282  0.00  0.00    +0.000 C 
BRANCH  21  22
ATOM     22  C   UNL     1      51.771  71.398  37.259  0.00  0.00    +0.000 C 
BRANCH  22  23
ATOM     23  N   UNL     1      51.890  72.871  37.293  0.00  0.00    +0.000 NA
ATOM     24  H   UNL     1      52.302  73.145  38.183  0.00  0.00    +0.000 HD
ATOM     25  H   UNL     1      50.978  73.317  37.267  0.00  0.00    +0.000 HD
ENDBRANCH  22  23
BRANCH  22  26
ATOM     26  C   UNL     1      50.309  70.992  37.567  0.00  0.00    +0.000 C 
BRANCH  26  30
ATOM     27  F   UNL     1      50.222  69.939  40.234  0.00  0.00    +0.000 F 
ATOM     28  F   UNL     1      48.010  74.861  39.477  0.00  0.00    +0.000 F 
ATOM     29  F   UNL     1      48.025  73.718  41.967  0.00  0.00    +0.000 F 
ATOM     30  C   UNL     1      49.660  71.699  38.743  0.00  0.00    +0.000 A 
ATOM     31  C   UNL     1      49.663  71.143  40.028  0.00  0.00    +0.000 A 
ATOM     32  C   UNL     1      49.091  72.971  38.567  0.00  0.00    +0.000 A 
ATOM     33  C   UNL     1      48.542  73.644  39.659  0.00  0.00    +0.000 A 
ATOM     34  C   UNL     1      49.111  71.810  41.115  0.00  0.00    +0.000 A 
ATOM     35  C   UNL     1      48.551  73.067  40.921  0.00  0.00    +0.000 A 
ENDBRANCH  26  30
ENDBRANCH  22  26
ENDBRANCH  21  22
ENDBRANCH  10  21
TORSDOF 8
ENDMDL
MODEL 2
REMARK VINA RESULT:      -8.4     25.744     27.841
REMARK  Name = 24776586
REMARK  8 active torsions:
REMARK  status: ('A' for Active; 'I' for Inactive)
REMARK    1  A    between atoms: N_15  and  C_24
REMARK    2  A    between atoms: C_16  and  C_20
REMARK    3  A    between atoms: C_20  and  C_25
REMARK    4  A    between atoms: C_21  and  C_22
REMARK    5  A    between atoms: C_22  and  C_24
REMARK    6  A    between atoms: C_23  and  C_27
REMARK    7  A    between atoms: C_24  and  C_26
REMARK    8  A    between atoms: C_26  and  C_28
REMARK                            x       y       z     vdW  Elec       q    Type
REMARK                         _______ _______ _______ _____ _____    ______ ____
ROOT
ATOM      1  O   UNL     1      36.573  51.880  40.479  0.00  0.00    +0.000 OA
ATOM      2  N   UNL     1      38.290  51.431  41.927  0.00  0.00    +0.000 N 
ATOM      3  N   UNL     1      39.048  49.470  43.787  0.00  0.00    +0.000 N 
ATOM      4  N   UNL     1      37.111  49.373  44.790  0.00  0.00    +0.000 NA
ATOM      5  N   UNL     1      37.929  48.418  45.332  0.00  0.00    +0.000 NA
ATOM      6  C   UNL     1      37.325  51.147  43.023  0.00  0.00    +0.000 C 
ATOM      7  C   UNL     1      39.723  51.254  42.213  0.00  0.00    +0.000 C 
ATOM      8  C   UNL     1      37.793  50.007  43.863  0.00  0.00    +0.000 A 
ATOM      9  C   UNL     1      40.031  49.881  42.813  0.00  0.00    +0.000 C 
ATOM     10  C   UNL     1      37.782  51.782  40.674  0.00  0.00    +0.000 C 
ATOM     11  C   UNL     1      39.110  48.481  44.727  0.00  0.00    +0.000 A 
ENDROOT
BRANCH  11  15
ATOM     12  F   UNL     1      41.290  48.336  45.637  0.00  0.00    +0.000 F 
ATOM     13  F   UNL     1      39.991  46.608  45.862  0.00  0.00    +0.000 F 
ATOM     14  F   UNL     1      40.841  47.098  43.910  0.00  0.00    +0.000 F 
ATOM     15  C   UNL     1      40.292  47.636  45.029  0.00  0.00    +0.000 C 
ENDBRANCH  11  15
BRANCH   6  16
ATOM     16  C   UNL     1      36.901  52.352  43.875  0.00  0.00    +0.000 C 
BRANCH  16  20
ATOM     17  F   UNL     1      34.744  52.626  42.850  0.00  0.00    +0.000 F 
ATOM     18  F   UNL     1      35.172  53.774  44.640  0.00  0.00    +0.000 F 
ATOM     19  F   UNL     1      34.854  51.630  44.773  0.00  0.00    +0.000 F 
ATOM     20  C   UNL     1      35.415  52.602  44.017  0.00  0.00    +0.000 C 
ENDBRANCH  16  20
ENDBRANCH   6  16
BRANCH  10  21
ATOM     21  C   UNL     1      38.799  52.028  39.561  0.00  0.00    +0.000 C 
BRANCH  21  22
ATOM     22  C   UNL     1      39.009  50.863  38.574  0.00  0.00    +0.000 C 
BRANCH  22  23
ATOM     23  N   UNL     1      40.465  50.657  38.427  0.00  0.00    +0.000 NA
ATOM     24  H   UNL     1      40.901  50.728  39.345  0.00  0.00    +0.000 HD
ATOM     25  H   UNL     1      40.888  51.391  37.866  0.00  0.00    +0.000 HD
ENDBRANCH  22  23
BRANCH  22  26
ATOM     26  C   UNL     1      38.385  51.146  37.186  0.00  0.00    +0.000 C 
BRANCH  26  30
ATOM     27  F   UNL     1      35.822  52.353  37.636  0.00  0.00    +0.000 F 
ATOM     28  F   UNL     1      35.820  47.337  35.508  0.00  0.00    +0.000 F 
ATOM     29  F   UNL     1      33.457  48.639  35.985  0.00  0.00    +0.000 F 
ATOM     30  C   UNL     1      37.059  50.462  36.906  0.00  0.00    +0.000 A 
ATOM     31  C   UNL     1      35.837  51.109  37.131  0.00  0.00    +0.000 A 
ATOM     32  C   UNL     1      37.040  49.172  36.351  0.00  0.00    +0.000 A 
ATOM     33  C   UNL     1      35.822  48.565  36.045  0.00  0.00    +0.000 A 
ATOM     34  C   UNL     1      34.623  50.503  36.830  0.00  0.00    +0.000 A 
ATOM     35  C   UNL     1      34.624  49.225  36.284  0.00  0.00    +0.000 A 
ENDBRANCH  26  30
ENDBRANCH  22  26
ENDBRANCH  21  22
ENDBRANCH  10  21
TORSDOF 8
ENDMDL
MODEL 3
REMARK VINA RESULT:      -8.2      3.327      6.968
REMARK  Name = 24776586
REMARK  8 active torsions:
REMARK  status: ('A' for Active; 'I' for Inactive)
REMARK    1  A    between atoms: N_15  and  C_24
REMARK    2  A    between atoms: C_16  and  C_20
REMARK    3  A    between atoms: C_20  and  C_25
REMARK    4  A    between atoms: C_21  and  C_22
REMARK    5  A    between atoms: C_22  and  C_24
REMARK    6  A    between atoms: C_23  and  C_27
REMARK    7  A    between atoms: C_24  and  C_26
REMARK    8  A    between atoms: C_26  and  C_28
REMARK                            x       y       z     vdW  Elec       q    Type
REMARK                         _______ _______ _______ _____ _____    ______ ____
ROOT
ATOM      1  O   UNL     1      59.180  68.482  37.286  0.00  0.00    +0.000 OA
ATOM      2  N   UNL     1      57.630  70.137  36.964  0.00  0.00    +0.000 N 
ATOM      3  N   UNL     1      54.842  70.466  36.935  0.00  0.00    +0.000 N 
ATOM      4  N   UNL     1      54.441  68.738  35.662  0.00  0.00    +0.000 NA
ATOM      5  N   UNL     1      53.244  69.275  36.056  0.00  0.00    +0.000 NA
ATOM      6  C   UNL     1      56.870  69.277  36.018  0.00  0.00    +0.000 C 
ATOM      7  C   UNL     1      57.079  71.466  37.275  0.00  0.00    +0.000 C 
ATOM      8  C   UNL     1      55.400  69.463  36.191  0.00  0.00    +0.000 A 
ATOM      9  C   UNL     1      55.616  71.399  37.718  0.00  0.00    +0.000 C 
ATOM     10  C   UNL     1      58.783  69.613  37.554  0.00  0.00    +0.000 C 
ATOM     11  C   UNL     1      53.487  70.332  36.824  0.00  0.00    +0.000 A 
ENDROOT
BRANCH  11  15
ATOM     12  F   UNL     1      52.669  72.529  37.139  0.00  0.00    +0.000 F 
ATOM     13  F   UNL     1      51.211  70.921  37.024  0.00  0.00    +0.000 F 
ATOM     14  F   UNL     1      52.471  71.139  38.795  0.00  0.00    +0.000 F 
ATOM     15  C   UNL     1      52.468  71.216  37.440  0.00  0.00    +0.000 C 
ENDBRANCH  11  15
BRANCH   6  16
ATOM     16  C   UNL     1      57.290  69.362  34.544  0.00  0.00    +0.000 C 
BRANCH  16  20
ATOM     17  F   UNL     1      56.621  67.161  33.846  0.00  0.00    +0.000 F 
ATOM     18  F   UNL     1      58.691  67.460  34.419  0.00  0.00    +0.000 F 
ATOM     19  F   UNL     1      57.945  68.294  32.557  0.00  0.00    +0.000 F 
ATOM     20  C   UNL     1      57.623  68.059  33.850  0.00  0.00    +0.000 C 
ENDBRANCH  16  20
ENDBRANCH   6  16
BRANCH  10  21
ATOM     21  C   UNL     1      59.517  70.509  38.549  0.00  0.00    +0.000 C 
BRANCH  21  22
ATOM     22  C   UNL     1      59.404  70.100  40.030  0.00  0.00    +0.000 C 
BRANCH  22  23
ATOM     23  N   UNL     1      60.225  68.887  40.226  0.00  0.00    +0.000 NA
ATOM     24  H   UNL     1      59.988  68.211  39.504  0.00  0.00    +0.000 HD
ATOM     25  H   UNL     1      60.007  68.431  41.108  0.00  0.00    +0.000 HD
ENDBRANCH  22  23
BRANCH  22  26
ATOM     26  C   UNL     1      57.943  69.808  40.452  0.00  0.00    +0.000 C 
BRANCH  26  30
ATOM     27  F   UNL     1      55.299  69.554  41.534  0.00  0.00    +0.000 F 
ATOM     28  F   UNL     1      58.457  73.440  43.684  0.00  0.00    +0.000 F 
ATOM     29  F   UNL     1      55.909  73.054  44.616  0.00  0.00    +0.000 F 
ATOM     30  C   UNL     1      57.377  70.703  41.539  0.00  0.00    +0.000 A 
ATOM     31  C   UNL     1      56.082  70.521  42.041  0.00  0.00    +0.000 A 
ATOM     32  C   UNL     1      58.179  71.705  42.109  0.00  0.00    +0.000 A 
ATOM     33  C   UNL     1      57.676  72.493  43.145  0.00  0.00    +0.000 A 
ATOM     34  C   UNL     1      55.579  71.309  43.069  0.00  0.00    +0.000 A 
ATOM     35  C   UNL     1      56.386  72.297  43.619  0.00  0.00    +0.000 A 
ENDBRANCH  26  30
ENDBRANCH  22  26
ENDBRANCH  21  22
ENDBRANCH  10  21
TORSDOF 8
ENDMDL
MODEL 4
REMARK VINA RESULT:      -8.2     20.556     21.659
REMARK  Name = 24776586
REMARK  8 active torsions:
REMARK  status: ('A' for Active; 'I' for Inactive)
REMARK    1  A    between atoms: N_15  and  C_24
REMARK    2  A    between atoms: C_16  and  C_20
REMARK    3  A    between atoms: C_20  and  C_25
REMARK    4  A    between atoms: C_21  and  C_22
REMARK    5  A    between atoms: C_22  and  C_24
REMARK    6  A    between atoms: C_23  and  C_27
REMARK    7  A    between atoms: C_24  and  C_26
REMARK    8  A    between atoms: C_26  and  C_28
REMARK                            x       y       z     vdW  Elec       q    Type
REMARK                         _______ _______ _______ _____ _____    ______ ____
ROOT
ATOM      1  O   UNL     1      51.626  51.381  33.242  0.00  0.00    +0.000 OA
ATOM      2  N   UNL     1      51.786  50.307  35.259  0.00  0.00    +0.000 N 
ATOM      3  N   UNL     1      52.974  50.670  37.776  0.00  0.00    +0.000 N 
ATOM      4  N   UNL     1      54.942  51.212  37.002  0.00  0.00    +0.000 NA
ATOM      5  N   UNL     1      54.962  51.338  38.366  0.00  0.00    +0.000 NA
ATOM      6  C   UNL     1      53.260  50.502  35.275  0.00  0.00    +0.000 C 
ATOM      7  C   UNL     1      51.168  49.654  36.425  0.00  0.00    +0.000 C 
ATOM      8  C   UNL     1      53.743  50.805  36.654  0.00  0.00    +0.000 A 
ATOM      9  C   UNL     1      51.575  50.314  37.744  0.00  0.00    +0.000 C 
ATOM     10  C   UNL     1      51.064  50.811  34.175  0.00  0.00    +0.000 C 
ATOM     11  C   UNL     1      53.767  51.001  38.838  0.00  0.00    +0.000 A 
ENDROOT
BRANCH  11  15
ATOM     12  F   UNL     1      54.435  51.088  41.106  0.00  0.00    +0.000 F 
ATOM     13  F   UNL     1      52.527  51.991  40.585  0.00  0.00    +0.000 F 
ATOM     14  F   UNL     1      52.746  49.817  40.608  0.00  0.00    +0.000 F 
ATOM     15  C   UNL     1      53.368  50.975  40.267  0.00  0.00    +0.000 C 
ENDBRANCH  11  15
BRANCH   6  16
ATOM     16  C   UNL     1      54.093  49.400  34.604  0.00  0.00    +0.000 C 
BRANCH  16  20
ATOM     17  F   UNL     1      52.539  47.636  34.102  0.00  0.00    +0.000 F 
ATOM     18  F   UNL     1      53.358  47.729  36.108  0.00  0.00    +0.000 F 
ATOM     19  F   UNL     1      54.615  47.115  34.447  0.00  0.00    +0.000 F 
ATOM     20  C   UNL     1      53.633  47.973  34.810  0.00  0.00    +0.000 C 
ENDBRANCH  16  20
ENDBRANCH   6  16
BRANCH  10  21
ATOM     21  C   UNL     1      49.548  50.628  34.209  0.00  0.00    +0.000 C 
BRANCH  21  22
ATOM     22  C   UNL     1      48.725  51.898  34.500  0.00  0.00    +0.000 C 
BRANCH  22  23
ATOM     23  N   UNL     1      49.648  53.051  34.461  0.00  0.00    +0.000 NA
ATOM     24  H   UNL     1      50.594  52.708  34.303  0.00  0.00    +0.000 HD
ATOM     25  H   UNL     1      49.679  53.531  35.356  0.00  0.00    +0.000 HD
ENDBRANCH  22  23
BRANCH  22  26
ATOM     26  C   UNL     1      48.025  51.843  35.880  0.00  0.00    +0.000 C 
BRANCH  26  30
ATOM     27  F   UNL     1      46.542  50.638  38.019  0.00  0.00    +0.000 F 
ATOM     28  F   UNL     1      43.679  52.276  33.682  0.00  0.00    +0.000 F 
ATOM     29  F   UNL     1      42.414  51.120  35.819  0.00  0.00    +0.000 F 
ATOM     30  C   UNL     1      46.526  51.608  35.852  0.00  0.00    +0.000 A 
ATOM     31  C   UNL     1      45.852  51.028  36.935  0.00  0.00    +0.000 A 
ATOM     32  C   UNL     1      45.772  52.030  34.745  0.00  0.00    +0.000 A 
ATOM     33  C   UNL     1      44.386  51.861  34.742  0.00  0.00    +0.000 A 
ATOM     34  C   UNL     1      44.473  50.855  36.930  0.00  0.00    +0.000 A 
ATOM     35  C   UNL     1      43.744  51.277  35.825  0.00  0.00    +0.000 A 
ENDBRANCH  26  30
ENDBRANCH  22  26
ENDBRANCH  21  22
ENDBRANCH  10  21
TORSDOF 8
ENDMDL
MODEL 5
REMARK VINA RESULT:      -8.1      4.014      7.665
REMARK  Name = 24776586
REMARK  8 active torsions:
REMARK  status: ('A' for Active; 'I' for Inactive)
REMARK    1  A    between atoms: N_15  and  C_24
REMARK    2  A    between atoms: C_16  and  C_20
REMARK    3  A    between atoms: C_20  and  C_25
REMARK    4  A    between atoms: C_21  and  C_22
REMARK    5  A    between atoms: C_22  and  C_24
REMARK    6  A    between atoms: C_23  and  C_27
REMARK    7  A    between atoms: C_24  and  C_26
REMARK    8  A    between atoms: C_26  and  C_28
REMARK                            x       y       z     vdW  Elec       q    Type
REMARK                         _______ _______ _______ _____ _____    ______ ____
ROOT
ATOM      1  O   UNL     1      56.342  68.460  38.192  0.00  0.00    +0.000 OA
ATOM      2  N   UNL     1      57.172  70.184  39.452  0.00  0.00    +0.000 N 
ATOM      3  N   UNL     1      56.614  71.526  41.853  0.00  0.00    +0.000 N 
ATOM      4  N   UNL     1      54.481  71.779  41.461  0.00  0.00    +0.000 NA
ATOM      5  N   UNL     1      54.750  72.249  42.720  0.00  0.00    +0.000 NA
ATOM      6  C   UNL     1      55.814  70.778  39.581  0.00  0.00    +0.000 C 
ATOM      7  C   UNL     1      58.280  70.851  40.155  0.00  0.00    +0.000 C 
ATOM      8  C   UNL     1      55.609  71.349  40.943  0.00  0.00    +0.000 A 
ATOM      9  C   UNL     1      57.971  71.086  41.635  0.00  0.00    +0.000 C 
ATOM     10  C   UNL     1      57.308  68.996  38.730  0.00  0.00    +0.000 C 
ATOM     11  C   UNL     1      56.049  72.103  42.956  0.00  0.00    +0.000 A 
ENDROOT
BRANCH  11  15
ATOM     12  F   UNL     1      55.922  73.018  45.133  0.00  0.00    +0.000 F 
ATOM     13  F   UNL     1      57.400  71.464  44.783  0.00  0.00    +0.000 F 
ATOM     14  F   UNL     1      57.694  73.466  43.961  0.00  0.00    +0.000 F 
ATOM     15  C   UNL     1      56.763  72.506  44.192  0.00  0.00    +0.000 C 
ENDBRANCH  11  15
BRANCH   6  16
ATOM     16  C   UNL     1      55.402  71.762  38.477  0.00  0.00    +0.000 C 
BRANCH  16  20
ATOM     17  F   UNL     1      54.986  70.752  36.336  0.00  0.00    +0.000 F 
ATOM     18  F   UNL     1      53.579  72.242  37.048  0.00  0.00    +0.000 F 
ATOM     19  F   UNL     1      53.650  70.279  37.976  0.00  0.00    +0.000 F 
ATOM     20  C   UNL     1      54.417  71.260  37.444  0.00  0.00    +0.000 C 
ENDBRANCH  16  20
ENDBRANCH   6  16
BRANCH  10  21
ATOM     21  C   UNL     1      58.709  68.393  38.651  0.00  0.00    +0.000 C 
BRANCH  21  22
ATOM     22  C   UNL     1      58.969  67.177  39.561  0.00  0.00    +0.000 C 
BRANCH  22  23
ATOM     23  N   UNL     1      57.717  66.395  39.636  0.00  0.00    +0.000 NA
ATOM     24  H   UNL     1      57.346  66.281  38.695  0.00  0.00    +0.000 HD
ATOM     25  H   UNL     1      56.999  66.895  40.153  0.00  0.00    +0.000 HD
ENDBRANCH  22  23
BRANCH  22  26
ATOM     26  C   UNL     1      59.406  67.590  40.987  0.00  0.00    +0.000 C 
BRANCH  26  30
ATOM     27  F   UNL     1      60.976  65.280  41.641  0.00  0.00    +0.000 F 
ATOM     28  F   UNL     1      56.573  66.190  44.718  0.00  0.00    +0.000 F 
ATOM     29  F   UNL     1      58.190  64.036  45.219  0.00  0.00    +0.000 F 
ATOM     30  C   UNL     1      59.062  66.609  42.094  0.00  0.00    +0.000 A 
ATOM     31  C   UNL     1      59.877  65.506  42.378  0.00  0.00    +0.000 A 
ATOM     32  C   UNL     1      57.934  66.832  42.901  0.00  0.00    +0.000 A 
ATOM     33  C   UNL     1      57.648  65.960  43.951  0.00  0.00    +0.000 A 
ATOM     34  C   UNL     1      59.589  64.634  43.421  0.00  0.00    +0.000 A 
ATOM     35  C   UNL     1      58.468  64.869  44.207  0.00  0.00    +0.000 A 
ENDBRANCH  26  30
ENDBRANCH  22  26
ENDBRANCH  21  22
ENDBRANCH  10  21
TORSDOF 8
ENDMDL
MODEL 6
REMARK VINA RESULT:      -8.0     26.538     28.488
REMARK  Name = 24776586
REMARK  8 active torsions:
REMARK  status: ('A' for Active; 'I' for Inactive)
REMARK    1  A    between atoms: N_15  and  C_24
REMARK    2  A    between atoms: C_16  and  C_20
REMARK    3  A    between atoms: C_20  and  C_25
REMARK    4  A    between atoms: C_21  and  C_22
REMARK    5  A    between atoms: C_22  and  C_24
REMARK    6  A    between atoms: C_23  and  C_27
REMARK    7  A    between atoms: C_24  and  C_26
REMARK    8  A    between atoms: C_26  and  C_28
REMARK                            x       y       z     vdW  Elec       q    Type
REMARK                         _______ _______ _______ _____ _____    ______ ____
ROOT
ATOM      1  O   UNL     1      38.159  50.198  43.778  0.00  0.00    +0.000 OA
ATOM      2  N   UNL     1      36.989  49.175  45.461  0.00  0.00    +0.000 N 
ATOM      3  N   UNL     1      36.915  49.108  48.266  0.00  0.00    +0.000 N 
ATOM      4  N   UNL     1      39.068  48.860  48.526  0.00  0.00    +0.000 NA
ATOM      5  N   UNL     1      38.493  48.991  49.762  0.00  0.00    +0.000 NA
ATOM      6  C   UNL     1      38.254  48.804  46.149  0.00  0.00    +0.000 C 
ATOM      7  C   UNL     1      35.721  48.820  46.119  0.00  0.00    +0.000 C 
ATOM      8  C   UNL     1      38.111  48.926  47.629  0.00  0.00    +0.000 A 
ATOM      9  C   UNL     1      35.665  49.301  47.570  0.00  0.00    +0.000 C 
ATOM     10  C   UNL     1      37.073  49.895  44.267  0.00  0.00    +0.000 C 
ATOM     11  C   UNL     1      37.182  49.134  49.605  0.00  0.00    +0.000 A 
ENDROOT
BRANCH  11  15
ATOM     12  F   UNL     1      35.307  50.298  50.457  0.00  0.00    +0.000 F 
ATOM     13  F   UNL     1      35.432  48.165  50.857  0.00  0.00    +0.000 F 
ATOM     14  F   UNL     1      36.762  49.558  51.889  0.00  0.00    +0.000 F 
ATOM     15  C   UNL     1      36.184  49.283  50.692  0.00  0.00    +0.000 C 
ENDBRANCH  11  15
BRANCH   6  16
ATOM     16  C   UNL     1      38.873  47.459  45.741  0.00  0.00    +0.000 C 
BRANCH  16  20
ATOM     17  F   UNL     1      41.036  48.503  45.855  0.00  0.00    +0.000 F 
ATOM     18  F   UNL     1      40.486  47.499  44.012  0.00  0.00    +0.000 F 
ATOM     19  F   UNL     1      40.937  46.338  45.791  0.00  0.00    +0.000 F 
ATOM     20  C   UNL     1      40.336  47.468  45.353  0.00  0.00    +0.000 C 
ENDBRANCH  16  20
ENDBRANCH   6  16
BRANCH  10  21
ATOM     21  C   UNL     1      35.755  50.294  43.606  0.00  0.00    +0.000 C 
BRANCH  21  22
ATOM     22  C   UNL     1      35.610  51.785  43.244  0.00  0.00    +0.000 C 
BRANCH  22  23
ATOM     23  N   UNL     1      36.131  51.966  41.873  0.00  0.00    +0.000 NA
ATOM     24  H   UNL     1      36.825  52.712  41.882  0.00  0.00    +0.000 HD
ATOM     25  H   UNL     1      35.402  52.280  41.238  0.00  0.00    +0.000 HD
ENDBRANCH  22  23
BRANCH  22  26
ATOM     26  C   UNL     1      36.384  52.707  44.216  0.00  0.00    +0.000 C 
BRANCH  26  30
ATOM     27  F   UNL     1      35.148  55.289  44.038  0.00  0.00    +0.000 F 
ATOM     28  F   UNL     1      34.312  52.493  48.640  0.00  0.00    +0.000 F 
ATOM     29  F   UNL     1      33.188  54.969  48.301  0.00  0.00    +0.000 F 
ATOM     30  C   UNL     1      35.561  53.337  45.325  0.00  0.00    +0.000 A 
ATOM     31  C   UNL     1      34.967  54.597  45.175  0.00  0.00    +0.000 A 
ATOM     32  C   UNL     1      35.330  52.628  46.515  0.00  0.00    +0.000 A 
ATOM     33  C   UNL     1      34.530  53.186  47.513  0.00  0.00    +0.000 A 
ATOM     34  C   UNL     1      34.174  55.155  46.170  0.00  0.00    +0.000 A 
ATOM     35  C   UNL     1      33.958  54.439  47.342  0.00  0.00    +0.000 A 
ENDBRANCH  26  30
ENDBRANCH  22  26
ENDBRANCH  21  22
ENDBRANCH  10  21
TORSDOF 8
ENDMDL
MODEL 7
REMARK VINA RESULT:      -7.9     19.535     22.134
REMARK  Name = 24776586
REMARK  8 active torsions:
REMARK  status: ('A' for Active; 'I' for Inactive)
REMARK    1  A    between atoms: N_15  and  C_24
REMARK    2  A    between atoms: C_16  and  C_20
REMARK    3  A    between atoms: C_20  and  C_25
REMARK    4  A    between atoms: C_21  and  C_22
REMARK    5  A    between atoms: C_22  and  C_24
REMARK    6  A    between atoms: C_23  and  C_27
REMARK    7  A    between atoms: C_24  and  C_26
REMARK    8  A    between atoms: C_26  and  C_28
REMARK                            x       y       z     vdW  Elec       q    Type
REMARK                         _______ _______ _______ _____ _____    ______ ____
ROOT
ATOM      1  O   UNL     1      52.756  50.949  33.042  0.00  0.00    +0.000 OA
ATOM      2  N   UNL     1      51.138  50.809  34.657  0.00  0.00    +0.000 N 
ATOM      3  N   UNL     1      48.622  51.903  35.251  0.00  0.00    +0.000 N 
ATOM      4  N   UNL     1      49.203  53.975  34.879  0.00  0.00    +0.000 NA
ATOM      5  N   UNL     1      47.861  53.942  35.154  0.00  0.00    +0.000 NA
ATOM      6  C   UNL     1      51.064  52.292  34.748  0.00  0.00    +0.000 C 
ATOM      7  C   UNL     1      50.213  50.025  35.491  0.00  0.00    +0.000 C 
ATOM      8  C   UNL     1      49.656  52.744  34.944  0.00  0.00    +0.000 A 
ATOM      9  C   UNL     1      48.759  50.468  35.320  0.00  0.00    +0.000 C 
ATOM     10  C   UNL     1      52.030  50.246  33.741  0.00  0.00    +0.000 C 
ATOM     11  C   UNL     1      47.509  52.683  35.387  0.00  0.00    +0.000 A 
ENDROOT
BRANCH  11  15
ATOM     12  F   UNL     1      45.396  53.183  36.326  0.00  0.00    +0.000 F 
ATOM     13  F   UNL     1      45.450  51.784  34.664  0.00  0.00    +0.000 F 
ATOM     14  F   UNL     1      46.179  51.182  36.634  0.00  0.00    +0.000 F 
ATOM     15  C   UNL     1      46.150  52.209  35.746  0.00  0.00    +0.000 C 
ENDBRANCH  11  15
BRANCH   6  16
ATOM     16  C   UNL     1      52.025  52.954  35.745  0.00  0.00    +0.000 C 
BRANCH  16  20
ATOM     17  F   UNL     1      53.334  53.696  33.871  0.00  0.00    +0.000 F 
ATOM     18  F   UNL     1      54.233  53.797  35.843  0.00  0.00    +0.000 F 
ATOM     19  F   UNL     1      52.645  55.175  35.298  0.00  0.00    +0.000 F 
ATOM     20  C   UNL     1      53.064  53.894  35.175  0.00  0.00    +0.000 C 
ENDBRANCH  16  20
ENDBRANCH   6  16
BRANCH  10  21
ATOM     21  C   UNL     1      52.053  48.722  33.646  0.00  0.00    +0.000 C 
BRANCH  21  22
ATOM     22  C   UNL     1      53.402  48.049  33.966  0.00  0.00    +0.000 C 
BRANCH  22  23
ATOM     23  N   UNL     1      53.415  46.731  33.299  0.00  0.00    +0.000 NA
ATOM     24  H   UNL     1      54.321  46.598  32.853  0.00  0.00    +0.000 HD
ATOM     25  H   UNL     1      52.733  46.689  32.547  0.00  0.00    +0.000 HD
ENDBRANCH  22  23
BRANCH  22  26
ATOM     26  C   UNL     1      53.622  47.861  35.486  0.00  0.00    +0.000 C 
BRANCH  26  30
ATOM     27  F   UNL     1      56.284  48.814  35.002  0.00  0.00    +0.000 F 
ATOM     28  F   UNL     1      53.345  51.546  38.687  0.00  0.00    +0.000 F 
ATOM     29  F   UNL     1      55.900  52.336  38.094  0.00  0.00    +0.000 F 
ATOM     30  C   UNL     1      54.254  49.034  36.213  0.00  0.00    +0.000 A 
ATOM     31  C   UNL     1      55.554  49.465  35.922  0.00  0.00    +0.000 A 
ATOM     32  C   UNL     1      53.509  49.754  37.161  0.00  0.00    +0.000 A 
ATOM     33  C   UNL     1      54.071  50.864  37.791  0.00  0.00    +0.000 A 
ATOM     34  C   UNL     1      56.118  50.568  36.553  0.00  0.00    +0.000 A 
ATOM     35  C   UNL     1      55.365  51.266  37.490  0.00  0.00    +0.000 A 
ENDBRANCH  26  30
ENDBRANCH  22  26
ENDBRANCH  21  22
ENDBRANCH  10  21
TORSDOF 8
ENDMDL
MODEL 8
REMARK VINA RESULT:      -7.6      4.702      8.606
REMARK  Name = 24776586
REMARK  8 active torsions:
REMARK  status: ('A' for Active; 'I' for Inactive)
REMARK    1  A    between atoms: N_15  and  C_24
REMARK    2  A    between atoms: C_16  and  C_20
REMARK    3  A    between atoms: C_20  and  C_25
REMARK    4  A    between atoms: C_21  and  C_22
REMARK    5  A    between atoms: C_22  and  C_24
REMARK    6  A    between atoms: C_23  and  C_27
REMARK    7  A    between atoms: C_24  and  C_26
REMARK    8  A    between atoms: C_26  and  C_28
REMARK                            x       y       z     vdW  Elec       q    Type
REMARK                         _______ _______ _______ _____ _____    ______ ____
ROOT
ATOM      1  O   UNL     1      56.153  68.120  38.371  0.00  0.00    +0.000 OA
ATOM      2  N   UNL     1      57.143  69.799  39.575  0.00  0.00    +0.000 N 
ATOM      3  N   UNL     1      56.666  71.333  41.877  0.00  0.00    +0.000 N 
ATOM      4  N   UNL     1      54.597  71.821  41.378  0.00  0.00    +0.000 NA
ATOM      5  N   UNL     1      54.875  72.326  42.621  0.00  0.00    +0.000 NA
ATOM      6  C   UNL     1      55.865  70.560  39.613  0.00  0.00    +0.000 C 
ATOM      7  C   UNL     1      58.298  70.365  40.291  0.00  0.00    +0.000 C 
ATOM      8  C   UNL     1      55.681  71.229  40.933  0.00  0.00    +0.000 A 
ATOM      9  C   UNL     1      57.965  70.720  41.741  0.00  0.00    +0.000 C 
ATOM     10  C   UNL     1      57.158  68.564  38.923  0.00  0.00    +0.000 C 
ATOM     11  C   UNL     1      56.136  72.036  42.922  0.00  0.00    +0.000 A 
ENDROOT
BRANCH  11  15
ATOM     12  F   UNL     1      56.005  72.924  45.111  0.00  0.00    +0.000 F 
ATOM     13  F   UNL     1      57.476  71.366  44.745  0.00  0.00    +0.000 F 
ATOM     14  F   UNL     1      57.783  73.378  43.950  0.00  0.00    +0.000 F 
ATOM     15  C   UNL     1      56.846  72.420  44.166  0.00  0.00    +0.000 C 
ENDBRANCH  11  15
BRANCH   6  16
ATOM     16  C   UNL     1      55.620  71.522  38.442  0.00  0.00    +0.000 C 
BRANCH  16  20
ATOM     17  F   UNL     1      53.742  72.204  37.105  0.00  0.00    +0.000 F 
ATOM     18  F   UNL     1      53.685  70.233  38.010  0.00  0.00    +0.000 F 
ATOM     19  F   UNL     1      55.029  70.630  36.351  0.00  0.00    +0.000 F 
ATOM     20  C   UNL     1      54.508  71.163  37.481  0.00  0.00    +0.000 C 
ENDBRANCH  16  20
ENDBRANCH   6  16
BRANCH  10  21
ATOM     21  C   UNL     1      58.475  67.792  38.937  0.00  0.00    +0.000 C 
BRANCH  21  22
ATOM     22  C   UNL     1      58.473  66.475  39.737  0.00  0.00    +0.000 C 
BRANCH  22  23
ATOM     23  N   UNL     1      57.235  66.441  40.543  0.00  0.00    +0.000 NA
ATOM     24  H   UNL     1      57.215  65.574  41.078  0.00  0.00    +0.000 HD
ATOM     25  H   UNL     1      56.409  66.414  39.952  0.00  0.00    +0.000 HD
ENDBRANCH  22  23
BRANCH  22  26
ATOM     26  C   UNL     1      59.700  66.350  40.672  0.00  0.00    +0.000 C 
BRANCH  26  30
ATOM     27  F   UNL     1      59.241  66.153  43.496  0.00  0.00    +0.000 F 
ATOM     28  F   UNL     1      60.402  61.516  40.881  0.00  0.00    +0.000 F 
ATOM     29  F   UNL     1      59.919  61.500  43.578  0.00  0.00    +0.000 F 
ATOM     30  C   UNL     1      59.800  65.060  41.464  0.00  0.00    +0.000 A 
ATOM     31  C   UNL     1      59.548  65.021  42.842  0.00  0.00    +0.000 A 
ATOM     32  C   UNL     1      60.091  63.854  40.806  0.00  0.00    +0.000 A 
ATOM     33  C   UNL     1      60.130  62.659  41.526  0.00  0.00    +0.000 A 
ATOM     34  C   UNL     1      59.592  63.833  43.561  0.00  0.00    +0.000 A 
ATOM     35  C   UNL     1      59.884  62.650  42.892  0.00  0.00    +0.000 A 
ENDBRANCH  26  30
ENDBRANCH  22  26
ENDBRANCH  21  22
ENDBRANCH  10  21
TORSDOF 8
ENDMDL
MODEL 9
REMARK VINA RESULT:      -7.5     21.269     22.848
REMARK  Name = 24776586
REMARK  8 active torsions:
REMARK  status: ('A' for Active; 'I' for Inactive)
REMARK    1  A    between atoms: N_15  and  C_24
REMARK    2  A    between atoms: C_16  and  C_20
REMARK    3  A    between atoms: C_20  and  C_25
REMARK    4  A    between atoms: C_21  and  C_22
REMARK    5  A    between atoms: C_22  and  C_24
REMARK    6  A    between atoms: C_23  and  C_27
REMARK    7  A    between atoms: C_24  and  C_26
REMARK    8  A    between atoms: C_26  and  C_28
REMARK                            x       y       z     vdW  Elec       q    Type
REMARK                         _______ _______ _______ _____ _____    ______ ____
ROOT
ATOM      1  O   UNL     1      47.144  50.668  37.024  0.00  0.00    +0.000 OA
ATOM      2  N   UNL     1      49.278  51.174  36.359  0.00  0.00    +0.000 N 
ATOM      3  N   UNL     1      51.679  49.864  35.733  0.00  0.00    +0.000 N 
ATOM      4  N   UNL     1      51.676  48.570  37.492  0.00  0.00    +0.000 NA
ATOM      5  N   UNL     1      52.739  48.224  36.700  0.00  0.00    +0.000 NA
ATOM      6  C   UNL     1      49.843  50.286  37.410  0.00  0.00    +0.000 C 
ATOM      7  C   UNL     1      50.220  51.840  35.445  0.00  0.00    +0.000 C 
ATOM      8  C   UNL     1      51.044  49.561  36.906  0.00  0.00    +0.000 A 
ATOM      9  C   UNL     1      51.197  50.855  34.801  0.00  0.00    +0.000 C 
ATOM     10  C   UNL     1      47.888  51.275  36.256  0.00  0.00    +0.000 C 
ATOM     11  C   UNL     1      52.746  49.016  35.634  0.00  0.00    +0.000 A 
ENDROOT
BRANCH  11  15
ATOM     12  F   UNL     1      54.770  48.134  34.784  0.00  0.00    +0.000 F 
ATOM     13  F   UNL     1      53.201  48.603  33.355  0.00  0.00    +0.000 F 
ATOM     14  F   UNL     1      54.314  50.209  34.332  0.00  0.00    +0.000 F 
ATOM     15  C   UNL     1      53.744  48.994  34.536  0.00  0.00    +0.000 C 
ENDBRANCH  11  15
BRANCH   6  16
ATOM     16  C   UNL     1      50.097  50.938  38.777  0.00  0.00    +0.000 C 
BRANCH  16  20
ATOM     17  F   UNL     1      50.478  49.488  40.656  0.00  0.00    +0.000 F 
ATOM     18  F   UNL     1      48.555  49.375  39.658  0.00  0.00    +0.000 F 
ATOM     19  F   UNL     1      49.051  51.105  40.874  0.00  0.00    +0.000 F 
ATOM     20  C   UNL     1      49.559  50.213  39.992  0.00  0.00    +0.000 C 
ENDBRANCH  16  20
ENDBRANCH   6  16
BRANCH  10  21
ATOM     21  C   UNL     1      47.341  52.164  35.142  0.00  0.00    +0.000 C 
BRANCH  21  22
ATOM     22  C   UNL     1      45.912  51.839  34.664  0.00  0.00    +0.000 C 
BRANCH  22  23
ATOM     23  N   UNL     1      45.776  52.343  33.281  0.00  0.00    +0.000 NA
ATOM     24  H   UNL     1      46.611  52.088  32.756  0.00  0.00    +0.000 HD
ATOM     25  H   UNL     1      45.739  53.358  33.258  0.00  0.00    +0.000 HD
ENDBRANCH  22  23
BRANCH  22  26
ATOM     26  C   UNL     1      44.829  52.489  35.558  0.00  0.00    +0.000 C 
BRANCH  26  30
ATOM     27  F   UNL     1      42.655  51.988  33.755  0.00  0.00    +0.000 F 
ATOM     28  F   UNL     1      42.443  49.486  38.590  0.00  0.00    +0.000 F 
ATOM     29  F   UNL     1      40.455  49.102  36.745  0.00  0.00    +0.000 F 
ATOM     30  C   UNL     1      43.632  51.616  35.886  0.00  0.00    +0.000 A 
ATOM     31  C   UNL     1      42.607  51.394  34.958  0.00  0.00    +0.000 A 
ATOM     32  C   UNL     1      43.564  50.958  37.125  0.00  0.00    +0.000 A 
ATOM     33  C   UNL     1      42.489  50.113  37.407  0.00  0.00    +0.000 A 
ATOM     34  C   UNL     1      41.534  50.557  35.239  0.00  0.00    +0.000 A 
ATOM     35  C   UNL     1      41.483  49.917  36.471  0.00  0.00    +0.000 A 
ENDBRANCH  26  30
ENDBRANCH  22  26
ENDBRANCH  21  22
ENDBRANCH  10  21
TORSDOF 8
ENDMDL
