MODEL 1
REMARK VINA RESULT:      -8.8      0.000      0.000
REMARK  Name = 10479823
REMARK  8 active torsions:
REMARK  status: ('A' for Active; 'I' for Inactive)
REMARK    1  A    between atoms: N_10  and  C_19
REMARK    2  A    between atoms: N_12  and  C_22
REMARK    3  A    between atoms: C_15  and  C_19
REMARK    4  A    between atoms: C_20  and  C_21
REMARK    5  A    between atoms: C_21  and  C_22
REMARK    6  A    between atoms: C_22  and  C_24
REMARK    7  A    between atoms: C_23  and  C_26
REMARK    8  A    between atoms: C_24  and  C_25
REMARK                            x       y       z     vdW  Elec       q    Type
REMARK                         _______ _______ _______ _____ _____    ______ ____
ROOT
ATOM      1  O   UNL     1      54.976  70.998  36.621  0.00  0.00    +0.000 OA
ATOM      2  N   UNL     1      54.532  70.089  38.669  0.00  0.00    +0.000 N 
ATOM      3  N   UNL     1      54.580  70.749  41.329  0.00  0.00    +0.000 N 
ATOM      4  N   UNL     1      56.599  71.547  41.398  0.00  0.00    +0.000 NA
ATOM      5  N   UNL     1      54.658  71.231  42.570  0.00  0.00    +0.000 NA
ATOM      6  C   UNL     1      55.879  70.486  39.187  0.00  0.00    +0.000 C 
ATOM      7  C   UNL     1      53.669  69.339  39.600  0.00  0.00    +0.000 C 
ATOM      8  C   UNL     1      55.737  70.922  40.624  0.00  0.00    +0.000 A 
ATOM      9  C   UNL     1      53.351  70.192  40.813  0.00  0.00    +0.000 C 
ATOM     10  C   UNL     1      54.180  70.428  37.364  0.00  0.00    +0.000 C 
ATOM     11  C   UNL     1      55.919  71.716  42.605  0.00  0.00    +0.000 A 
ENDROOT
BRANCH  11  15
ATOM     12  F   UNL     1      57.148  71.530  44.663  0.00  0.00    +0.000 F 
ATOM     13  F   UNL     1      55.556  73.019  44.575  0.00  0.00    +0.000 F 
ATOM     14  F   UNL     1      57.421  73.347  43.490  0.00  0.00    +0.000 F 
ATOM     15  C   UNL     1      56.508  72.392  43.827  0.00  0.00    +0.000 C 
ENDBRANCH  11  15
BRANCH   6  16
ATOM     16  C   UNL     1      56.884  69.338  39.000  0.00  0.00    +0.000 C 
BRANCH  16  17
ATOM     17  N   UNL     1      58.254  69.644  39.347  0.00  0.00    +0.000 N 
ATOM     18  N   UNL     1      58.865  70.714  38.804  0.00  0.00    +0.000 NA
ATOM     19  N   UNL     1      60.166  69.729  40.398  0.00  0.00    +0.000 NA
ATOM     20  C   UNL     1      59.029  69.079  40.309  0.00  0.00    +0.000 A 
ATOM     21  C   UNL     1      60.031  70.708  39.457  0.00  0.00    +0.000 A 
ENDBRANCH  16  17
ENDBRANCH   6  16
BRANCH  10  22
ATOM     22  C   UNL     1      52.758  70.085  36.931  0.00  0.00    +0.000 C 
BRANCH  22  23
ATOM     23  C   UNL     1      51.725  71.204  37.133  0.00  0.00    +0.000 C 
BRANCH  23  24
ATOM     24  N   UNL     1      52.362  72.307  37.883  0.00  0.00    +0.000 NA
ATOM     25  H   UNL     1      51.772  73.139  37.830  0.00  0.00    +0.000 HD
ATOM     26  H   UNL     1      53.251  72.566  37.455  0.00  0.00    +0.000 HD
ENDBRANCH  23  24
BRANCH  23  27
ATOM     27  C   UNL     1      50.407  70.751  37.816  0.00  0.00    +0.000 C 
BRANCH  27  30
ATOM     28  F   UNL     1      48.989  71.786  42.379  0.00  0.00    +0.000 F 
ATOM     29  F   UNL     1      47.832  74.128  41.556  0.00  0.00    +0.000 F 
ATOM     30  C   UNL     1      49.767  71.686  38.821  0.00  0.00    +0.000 A 
ATOM     31  C   UNL     1      49.706  71.327  40.177  0.00  0.00    +0.000 A 
ATOM     32  C   UNL     1      49.155  72.884  38.415  0.00  0.00    +0.000 A 
ATOM     33  C   UNL     1      49.053  72.153  41.092  0.00  0.00    +0.000 A 
ATOM     34  C   UNL     1      48.511  73.711  39.339  0.00  0.00    +0.000 A 
ATOM     35  C   UNL     1      48.461  73.338  40.675  0.00  0.00    +0.000 A 
ENDBRANCH  27  30
ENDBRANCH  23  27
ENDBRANCH  22  23
ENDBRANCH  10  22
TORSDOF 8
ENDMDL
MODEL 2
REMARK VINA RESULT:      -8.7     23.581     25.245
REMARK  Name = 10479823
REMARK  8 active torsions:
REMARK  status: ('A' for Active; 'I' for Inactive)
REMARK    1  A    between atoms: N_10  and  C_19
REMARK    2  A    between atoms: N_12  and  C_22
REMARK    3  A    between atoms: C_15  and  C_19
REMARK    4  A    between atoms: C_20  and  C_21
REMARK    5  A    between atoms: C_21  and  C_22
REMARK    6  A    between atoms: C_22  and  C_24
REMARK    7  A    between atoms: C_23  and  C_26
REMARK    8  A    between atoms: C_24  and  C_25
REMARK                            x       y       z     vdW  Elec       q    Type
REMARK                         _______ _______ _______ _____ _____    ______ ____
ROOT
ATOM      1  O   UNL     1      40.654  49.558  37.235  0.00  0.00    +0.000 OA
ATOM      2  N   UNL     1      41.942  51.436  37.417  0.00  0.00    +0.000 N 
ATOM      3  N   UNL     1      44.275  52.499  36.449  0.00  0.00    +0.000 N 
ATOM      4  N   UNL     1      45.561  50.792  36.834  0.00  0.00    +0.000 NA
ATOM      5  N   UNL     1      45.425  52.868  35.881  0.00  0.00    +0.000 NA
ATOM      6  C   UNL     1      43.165  50.623  37.709  0.00  0.00    +0.000 C 
ATOM      7  C   UNL     1      42.113  52.900  37.433  0.00  0.00    +0.000 C 
ATOM      8  C   UNL     1      44.348  51.266  37.031  0.00  0.00    +0.000 A 
ATOM      9  C   UNL     1      43.091  53.320  36.352  0.00  0.00    +0.000 C 
ATOM     10  C   UNL     1      40.738  50.782  37.167  0.00  0.00    +0.000 C 
ATOM     11  C   UNL     1      46.218  51.804  36.135  0.00  0.00    +0.000 A 
ENDROOT
BRANCH  11  15
ATOM     12  F   UNL     1      48.163  50.461  35.697  0.00  0.00    +0.000 F 
ATOM     13  F   UNL     1      48.488  52.481  36.452  0.00  0.00    +0.000 F 
ATOM     14  F   UNL     1      47.814  52.176  34.399  0.00  0.00    +0.000 F 
ATOM     15  C   UNL     1      47.661  51.725  35.676  0.00  0.00    +0.000 C 
ENDBRANCH  11  15
BRANCH   6  16
ATOM     16  C   UNL     1      43.351  50.461  39.226  0.00  0.00    +0.000 C 
BRANCH  16  17
ATOM     17  N   UNL     1      43.453  49.100  39.702  0.00  0.00    +0.000 N 
ATOM     18  N   UNL     1      42.396  48.270  39.605  0.00  0.00    +0.000 NA
ATOM     19  N   UNL     1      44.254  47.173  40.344  0.00  0.00    +0.000 NA
ATOM     20  C   UNL     1      44.558  48.431  40.123  0.00  0.00    +0.000 A 
ATOM     21  C   UNL     1      42.928  47.120  40.029  0.00  0.00    +0.000 A 
ENDBRANCH  16  17
ENDBRANCH   6  16
BRANCH  10  22
ATOM     22  C   UNL     1      39.554  51.662  36.777  0.00  0.00    +0.000 C 
BRANCH  22  23
ATOM     23  C   UNL     1      38.460  50.960  35.958  0.00  0.00    +0.000 C 
BRANCH  23  24
ATOM     24  N   UNL     1      38.390  51.591  34.623  0.00  0.00    +0.000 NA
ATOM     25  H   UNL     1      38.874  51.002  33.943  0.00  0.00    +0.000 HD
ATOM     26  H   UNL     1      38.883  52.484  34.622  0.00  0.00    +0.000 HD
ENDBRANCH  23  24
BRANCH  23  27
ATOM     27  C   UNL     1      37.064  50.930  36.636  0.00  0.00    +0.000 C 
BRANCH  27  30
ATOM     28  F   UNL     1      32.714  48.714  36.893  0.00  0.00    +0.000 F 
ATOM     29  F   UNL     1      33.766  46.391  35.895  0.00  0.00    +0.000 F 
ATOM     30  C   UNL     1      36.174  49.731  36.382  0.00  0.00    +0.000 A 
ATOM     31  C   UNL     1      34.812  49.780  36.717  0.00  0.00    +0.000 A 
ATOM     32  C   UNL     1      36.700  48.525  35.885  0.00  0.00    +0.000 A 
ATOM     33  C   UNL     1      34.008  48.653  36.552  0.00  0.00    +0.000 A 
ATOM     34  C   UNL     1      35.886  47.403  35.712  0.00  0.00    +0.000 A 
ATOM     35  C   UNL     1      34.541  47.473  36.050  0.00  0.00    +0.000 A 
ENDBRANCH  27  30
ENDBRANCH  23  27
ENDBRANCH  22  23
ENDBRANCH  10  22
TORSDOF 8
ENDMDL
MODEL 3
REMARK VINA RESULT:      -8.6      2.207      3.055
REMARK  Name = 10479823
REMARK  8 active torsions:
REMARK  status: ('A' for Active; 'I' for Inactive)
REMARK    1  A    between atoms: N_10  and  C_19
REMARK    2  A    between atoms: N_12  and  C_22
REMARK    3  A    between atoms: C_15  and  C_19
REMARK    4  A    between atoms: C_20  and  C_21
REMARK    5  A    between atoms: C_21  and  C_22
REMARK    6  A    between atoms: C_22  and  C_24
REMARK    7  A    between atoms: C_23  and  C_26
REMARK    8  A    between atoms: C_24  and  C_25
REMARK                            x       y       z     vdW  Elec       q    Type
REMARK                         _______ _______ _______ _____ _____    ______ ____
ROOT
ATOM      1  O   UNL     1      54.271  71.673  36.380  0.00  0.00    +0.000 OA
ATOM      2  N   UNL     1      54.753  70.791  38.431  0.00  0.00    +0.000 N 
ATOM      3  N   UNL     1      56.443  71.181  40.554  0.00  0.00    +0.000 N 
ATOM      4  N   UNL     1      58.303  71.277  39.437  0.00  0.00    +0.000 NA
ATOM      5  N   UNL     1      57.329  71.508  41.496  0.00  0.00    +0.000 NA
ATOM      6  C   UNL     1      56.208  70.688  38.095  0.00  0.00    +0.000 C 
ATOM      7  C   UNL     1      54.352  70.286  39.758  0.00  0.00    +0.000 C 
ATOM      8  C   UNL     1      57.014  71.028  39.324  0.00  0.00    +0.000 A 
ATOM      9  C   UNL     1      55.031  71.094  40.847  0.00  0.00    +0.000 C 
ATOM     10  C   UNL     1      53.877  71.331  37.493  0.00  0.00    +0.000 C 
ATOM     11  C   UNL     1      58.482  71.556  40.792  0.00  0.00    +0.000 A 
ENDROOT
BRANCH  11  15
ATOM     12  F   UNL     1      60.868  71.751  40.571  0.00  0.00    +0.000 F 
ATOM     13  F   UNL     1      60.087  71.133  42.512  0.00  0.00    +0.000 F 
ATOM     14  F   UNL     1      59.855  73.199  41.848  0.00  0.00    +0.000 F 
ATOM     15  C   UNL     1      59.816  71.904  41.421  0.00  0.00    +0.000 C 
ENDBRANCH  11  15
BRANCH   6  16
ATOM     16  C   UNL     1      56.529  69.298  37.526  0.00  0.00    +0.000 C 
BRANCH  16  17
ATOM     17  N   UNL     1      56.463  69.180  36.087  0.00  0.00    +0.000 N 
ATOM     18  N   UNL     1      57.502  69.579  35.329  0.00  0.00    +0.000 NA
ATOM     19  N   UNL     1      55.897  68.554  34.073  0.00  0.00    +0.000 NA
ATOM     20  C   UNL     1      55.524  68.552  35.332  0.00  0.00    +0.000 A 
ATOM     21  C   UNL     1      57.099  69.198  34.113  0.00  0.00    +0.000 A 
ENDBRANCH  16  17
ENDBRANCH   6  16
BRANCH  10  22
ATOM     22  C   UNL     1      52.426  71.502  37.934  0.00  0.00    +0.000 C 
BRANCH  22  23
ATOM     23  C   UNL     1      51.495  70.331  37.584  0.00  0.00    +0.000 C 
BRANCH  23  24
ATOM     24  N   UNL     1      51.882  69.797  36.261  0.00  0.00    +0.000 NA
ATOM     25  H   UNL     1      51.812  70.539  35.562  0.00  0.00    +0.000 HD
ATOM     26  H   UNL     1      51.231  69.070  35.963  0.00  0.00    +0.000 HD
ENDBRANCH  23  24
BRANCH  23  27
ATOM     27  C   UNL     1      49.982  70.674  37.627  0.00  0.00    +0.000 C 
BRANCH  27  30
ATOM     28  F   UNL     1      48.968  71.595  42.321  0.00  0.00    +0.000 F 
ATOM     29  F   UNL     1      47.965  74.063  41.686  0.00  0.00    +0.000 F 
ATOM     30  C   UNL     1      49.494  71.608  38.716  0.00  0.00    +0.000 A 
ATOM     31  C   UNL     1      49.493  71.189  40.056  0.00  0.00    +0.000 A 
ATOM     32  C   UNL     1      48.962  72.872  38.408  0.00  0.00    +0.000 A 
ATOM     33  C   UNL     1      48.976  72.019  41.050  0.00  0.00    +0.000 A 
ATOM     34  C   UNL     1      48.455  73.703  39.410  0.00  0.00    +0.000 A 
ATOM     35  C   UNL     1      48.463  73.269  40.729  0.00  0.00    +0.000 A 
ENDBRANCH  27  30
ENDBRANCH  23  27
ENDBRANCH  22  23
ENDBRANCH  10  22
TORSDOF 8
ENDMDL
MODEL 4
REMARK VINA RESULT:      -8.4     24.729     27.063
REMARK  Name = 10479823
REMARK  8 active torsions:
REMARK  status: ('A' for Active; 'I' for Inactive)
REMARK    1  A    between atoms: N_10  and  C_19
REMARK    2  A    between atoms: N_12  and  C_22
REMARK    3  A    between atoms: C_15  and  C_19
REMARK    4  A    between atoms: C_20  and  C_21
REMARK    5  A    between atoms: C_21  and  C_22
REMARK    6  A    between atoms: C_22  and  C_24
REMARK    7  A    between atoms: C_23  and  C_26
REMARK    8  A    between atoms: C_24  and  C_25
REMARK                            x       y       z     vdW  Elec       q    Type
REMARK                         _______ _______ _______ _____ _____    ______ ____
ROOT
ATOM      1  O   UNL     1      40.663  50.518  38.635  0.00  0.00    +0.000 OA
ATOM      2  N   UNL     1      38.593  51.210  37.963  0.00  0.00    +0.000 N 
ATOM      3  N   UNL     1      36.171  50.186  37.188  0.00  0.00    +0.000 N 
ATOM      4  N   UNL     1      36.904  48.792  35.693  0.00  0.00    +0.000 NA
ATOM      5  N   UNL     1      35.064  49.528  36.838  0.00  0.00    +0.000 NA
ATOM      6  C   UNL     1      38.646  50.338  36.747  0.00  0.00    +0.000 C 
ATOM      7  C   UNL     1      37.389  52.049  38.112  0.00  0.00    +0.000 C 
ATOM      8  C   UNL     1      37.273  49.763  36.502  0.00  0.00    +0.000 A 
ATOM      9  C   UNL     1      36.159  51.171  38.244  0.00  0.00    +0.000 C 
ATOM     10  C   UNL     1      39.661  51.194  38.857  0.00  0.00    +0.000 C 
ATOM     11  C   UNL     1      35.530  48.671  35.903  0.00  0.00    +0.000 A 
ENDROOT
BRANCH  11  15
ATOM     12  F   UNL     1      34.234  46.649  35.984  0.00  0.00    +0.000 F 
ATOM     13  F   UNL     1      35.270  47.103  34.119  0.00  0.00    +0.000 F 
ATOM     14  F   UNL     1      33.510  48.255  34.700  0.00  0.00    +0.000 F 
ATOM     15  C   UNL     1      34.644  47.673  35.186  0.00  0.00    +0.000 C 
ENDBRANCH  11  15
BRANCH   6  16
ATOM     16  C   UNL     1      39.196  51.125  35.547  0.00  0.00    +0.000 C 
BRANCH  16  17
ATOM     17  N   UNL     1      40.615  51.398  35.574  0.00  0.00    +0.000 N 
ATOM     18  N   UNL     1      41.494  50.439  35.225  0.00  0.00    +0.000 NA
ATOM     19  N   UNL     1      42.535  52.437  35.580  0.00  0.00    +0.000 NA
ATOM     20  C   UNL     1      41.244  52.587  35.762  0.00  0.00    +0.000 A 
ATOM     21  C   UNL     1      42.646  51.114  35.267  0.00  0.00    +0.000 A 
ENDBRANCH  16  17
ENDBRANCH   6  16
BRANCH  10  22
ATOM     22  C   UNL     1      39.501  52.027  40.125  0.00  0.00    +0.000 C 
BRANCH  22  23
ATOM     23  C   UNL     1      39.176  51.227  41.395  0.00  0.00    +0.000 C 
BRANCH  23  24
ATOM     24  N   UNL     1      40.090  50.068  41.473  0.00  0.00    +0.000 NA
ATOM     25  H   UNL     1      41.034  50.363  41.221  0.00  0.00    +0.000 HD
ATOM     26  H   UNL     1      39.826  49.358  40.790  0.00  0.00    +0.000 HD
ENDBRANCH  23  24
BRANCH  23  27
ATOM     27  C   UNL     1      37.694  50.780  41.515  0.00  0.00    +0.000 C 
BRANCH  27  30
ATOM     28  F   UNL     1      35.158  51.105  45.683  0.00  0.00    +0.000 F 
ATOM     29  F   UNL     1      34.152  53.545  44.955  0.00  0.00    +0.000 F 
ATOM     30  C   UNL     1      36.792  51.550  42.457  0.00  0.00    +0.000 A 
ATOM     31  C   UNL     1      36.412  50.988  43.686  0.00  0.00    +0.000 A 
ATOM     32  C   UNL     1      36.253  52.797  42.094  0.00  0.00    +0.000 A 
ATOM     33  C   UNL     1      35.523  51.664  44.521  0.00  0.00    +0.000 A 
ATOM     34  C   UNL     1      35.370  53.473  42.940  0.00  0.00    +0.000 A 
ATOM     35  C   UNL     1      35.008  52.900  44.151  0.00  0.00    +0.000 A 
ENDBRANCH  27  30
ENDBRANCH  23  27
ENDBRANCH  22  23
ENDBRANCH  10  22
TORSDOF 8
ENDMDL
MODEL 5
REMARK VINA RESULT:      -8.0     22.738     24.424
REMARK  Name = 10479823
REMARK  8 active torsions:
REMARK  status: ('A' for Active; 'I' for Inactive)
REMARK    1  A    between atoms: N_10  and  C_19
REMARK    2  A    between atoms: N_12  and  C_22
REMARK    3  A    between atoms: C_15  and  C_19
REMARK    4  A    between atoms: C_20  and  C_21
REMARK    5  A    between atoms: C_21  and  C_22
REMARK    6  A    between atoms: C_22  and  C_24
REMARK    7  A    between atoms: C_23  and  C_26
REMARK    8  A    between atoms: C_24  and  C_25
REMARK                            x       y       z     vdW  Elec       q    Type
REMARK                         _______ _______ _______ _____ _____    ______ ____
ROOT
ATOM      1  O   UNL     1      42.271  49.816  37.647  0.00  0.00    +0.000 OA
ATOM      2  N   UNL     1      43.147  51.384  36.237  0.00  0.00    +0.000 N 
ATOM      3  N   UNL     1      45.433  51.908  34.818  0.00  0.00    +0.000 N 
ATOM      4  N   UNL     1      46.856  51.624  36.434  0.00  0.00    +0.000 NA
ATOM      5  N   UNL     1      46.607  52.009  34.191  0.00  0.00    +0.000 NA
ATOM      6  C   UNL     1      44.383  51.511  37.072  0.00  0.00    +0.000 C 
ATOM      7  C   UNL     1      43.063  52.267  35.058  0.00  0.00    +0.000 C 
ATOM      8  C   UNL     1      45.570  51.690  36.158  0.00  0.00    +0.000 A 
ATOM      9  C   UNL     1      44.186  51.948  34.090  0.00  0.00    +0.000 C 
ATOM     10  C   UNL     1      42.164  50.474  36.615  0.00  0.00    +0.000 C 
ATOM     11  C   UNL     1      47.483  51.840  35.206  0.00  0.00    +0.000 A 
ENDROOT
BRANCH  11  15
ATOM     12  F   UNL     1      49.681  51.621  36.154  0.00  0.00    +0.000 F 
ATOM     13  F   UNL     1      49.425  53.060  34.535  0.00  0.00    +0.000 F 
ATOM     14  F   UNL     1      49.393  50.920  34.110  0.00  0.00    +0.000 F 
ATOM     15  C   UNL     1      48.985  51.860  35.009  0.00  0.00    +0.000 C 
ENDBRANCH  11  15
BRANCH   6  16
ATOM     16  C   UNL     1      44.226  52.651  38.090  0.00  0.00    +0.000 C 
BRANCH  16  17
ATOM     17  N   UNL     1      43.496  52.320  39.293  0.00  0.00    +0.000 N 
ATOM     18  N   UNL     1      44.069  51.551  40.240  0.00  0.00    +0.000 NA
ATOM     19  N   UNL     1      42.050  52.360  40.928  0.00  0.00    +0.000 NA
ATOM     20  C   UNL     1      42.306  52.813  39.723  0.00  0.00    +0.000 A 
ATOM     21  C   UNL     1      43.140  51.587  41.201  0.00  0.00    +0.000 A 
ENDBRANCH  16  17
ENDBRANCH   6  16
BRANCH  10  22
ATOM     22  C   UNL     1      40.977  50.319  35.668  0.00  0.00    +0.000 C 
BRANCH  22  23
ATOM     23  C   UNL     1      39.602  50.248  36.349  0.00  0.00    +0.000 C 
BRANCH  23  24
ATOM     24  N   UNL     1      39.506  48.972  37.090  0.00  0.00    +0.000 NA
ATOM     25  H   UNL     1      40.443  48.597  37.242  0.00  0.00    +0.000 HD
ATOM     26  H   UNL     1      39.010  48.273  36.536  0.00  0.00    +0.000 HD
ENDBRANCH  23  24
BRANCH  23  27
ATOM     27  C   UNL     1      38.396  50.431  35.390  0.00  0.00    +0.000 C 
BRANCH  27  30
ATOM     28  F   UNL     1      34.894  47.021  35.270  0.00  0.00    +0.000 F 
ATOM     29  F   UNL     1      33.268  48.544  36.863  0.00  0.00    +0.000 F 
ATOM     30  C   UNL     1      37.046  49.905  35.834  0.00  0.00    +0.000 A 
ATOM     31  C   UNL     1      36.591  48.658  35.379  0.00  0.00    +0.000 A 
ATOM     32  C   UNL     1      36.192  50.679  36.638  0.00  0.00    +0.000 A 
ATOM     33  C   UNL     1      35.318  48.206  35.728  0.00  0.00    +0.000 A 
ATOM     34  C   UNL     1      34.922  50.216  36.992  0.00  0.00    +0.000 A 
ATOM     35  C   UNL     1      34.491  48.980  36.532  0.00  0.00    +0.000 A 
ENDBRANCH  27  30
ENDBRANCH  23  27
ENDBRANCH  22  23
ENDBRANCH  10  22
TORSDOF 8
ENDMDL
MODEL 6
REMARK VINA RESULT:      -7.9     20.466     21.591
REMARK  Name = 10479823
REMARK  8 active torsions:
REMARK  status: ('A' for Active; 'I' for Inactive)
REMARK    1  A    between atoms: N_10  and  C_19
REMARK    2  A    between atoms: N_12  and  C_22
REMARK    3  A    between atoms: C_15  and  C_19
REMARK    4  A    between atoms: C_20  and  C_21
REMARK    5  A    between atoms: C_21  and  C_22
REMARK    6  A    between atoms: C_22  and  C_24
REMARK    7  A    between atoms: C_23  and  C_26
REMARK    8  A    between atoms: C_24  and  C_25
REMARK                            x       y       z     vdW  Elec       q    Type
REMARK                         _______ _______ _______ _____ _____    ______ ____
ROOT
ATOM      1  O   UNL     1      50.284  53.095  34.500  0.00  0.00    +0.000 OA
ATOM      2  N   UNL     1      50.392  51.036  35.483  0.00  0.00    +0.000 N 
ATOM      3  N   UNL     1      50.353  49.876  37.966  0.00  0.00    +0.000 N 
ATOM      4  N   UNL     1      51.872  51.118  38.896  0.00  0.00    +0.000 NA
ATOM      5  N   UNL     1      50.315  49.476  39.238  0.00  0.00    +0.000 NA
ATOM      6  C   UNL     1      51.494  51.479  36.393  0.00  0.00    +0.000 C 
ATOM      7  C   UNL     1      49.975  49.626  35.599  0.00  0.00    +0.000 C 
ATOM      8  C   UNL     1      51.287  50.847  37.748  0.00  0.00    +0.000 A 
ATOM      9  C   UNL     1      49.424  49.362  36.987  0.00  0.00    +0.000 C 
ATOM     10  C   UNL     1      49.842  51.952  34.588  0.00  0.00    +0.000 C 
ATOM     11  C   UNL     1      51.269  50.247  39.804  0.00  0.00    +0.000 A 
ENDROOT
BRANCH  11  15
ATOM     12  F   UNL     1      50.896  51.048  42.040  0.00  0.00    +0.000 F 
ATOM     13  F   UNL     1      52.928  50.459  41.510  0.00  0.00    +0.000 F 
ATOM     14  F   UNL     1      51.389  48.939  41.797  0.00  0.00    +0.000 F 
ATOM     15  C   UNL     1      51.615  50.179  41.278  0.00  0.00    +0.000 C 
ENDBRANCH  11  15
BRANCH   6  16
ATOM     16  C   UNL     1      52.863  51.152  35.777  0.00  0.00    +0.000 C 
BRANCH  16  17
ATOM     17  N   UNL     1      53.096  49.758  35.473  0.00  0.00    +0.000 N 
ATOM     18  N   UNL     1      53.108  49.339  34.192  0.00  0.00    +0.000 NA
ATOM     19  N   UNL     1      53.714  47.670  35.624  0.00  0.00    +0.000 NA
ATOM     20  C   UNL     1      53.478  48.762  36.313  0.00  0.00    +0.000 A 
ATOM     21  C   UNL     1      53.466  48.060  34.341  0.00  0.00    +0.000 A 
ENDBRANCH  16  17
ENDBRANCH   6  16
BRANCH  10  22
ATOM     22  C   UNL     1      48.656  51.467  33.760  0.00  0.00    +0.000 C 
BRANCH  22  23
ATOM     23  C   UNL     1      47.397  52.342  33.848  0.00  0.00    +0.000 C 
BRANCH  23  24
ATOM     24  N   UNL     1      47.754  53.727  33.474  0.00  0.00    +0.000 NA
ATOM     25  H   UNL     1      46.949  54.179  33.037  0.00  0.00    +0.000 HD
ATOM     26  H   UNL     1      48.493  53.729  32.770  0.00  0.00    +0.000 HD
ENDBRANCH  23  24
BRANCH  23  27
ATOM     27  C   UNL     1      46.678  52.303  35.223  0.00  0.00    +0.000 C 
BRANCH  27  30
ATOM     28  F   UNL     1      42.866  50.243  37.488  0.00  0.00    +0.000 F 
ATOM     29  F   UNL     1      41.286  50.586  35.278  0.00  0.00    +0.000 F 
ATOM     30  C   UNL     1      45.218  51.898  35.252  0.00  0.00    +0.000 A 
ATOM     31  C   UNL     1      44.680  51.283  36.394  0.00  0.00    +0.000 A 
ATOM     32  C   UNL     1      44.396  52.051  34.123  0.00  0.00    +0.000 A 
ATOM     33  C   UNL     1      43.357  50.843  36.396  0.00  0.00    +0.000 A 
ATOM     34  C   UNL     1      43.068  51.618  34.135  0.00  0.00    +0.000 A 
ATOM     35  C   UNL     1      42.556  51.013  35.274  0.00  0.00    +0.000 A 
ENDBRANCH  27  30
ENDBRANCH  23  27
ENDBRANCH  22  23
ENDBRANCH  10  22
TORSDOF 8
ENDMDL
MODEL 7
REMARK VINA RESULT:      -7.8     20.559     21.638
REMARK  Name = 10479823
REMARK  8 active torsions:
REMARK  status: ('A' for Active; 'I' for Inactive)
REMARK    1  A    between atoms: N_10  and  C_19
REMARK    2  A    between atoms: N_12  and  C_22
REMARK    3  A    between atoms: C_15  and  C_19
REMARK    4  A    between atoms: C_20  and  C_21
REMARK    5  A    between atoms: C_21  and  C_22
REMARK    6  A    between atoms: C_22  and  C_24
REMARK    7  A    between atoms: C_23  and  C_26
REMARK    8  A    between atoms: C_24  and  C_25
REMARK                            x       y       z     vdW  Elec       q    Type
REMARK                         _______ _______ _______ _____ _____    ______ ____
ROOT
ATOM      1  O   UNL     1      51.716  51.629  35.183  0.00  0.00    +0.000 OA
ATOM      2  N   UNL     1      50.750  49.920  36.351  0.00  0.00    +0.000 N 
ATOM      3  N   UNL     1      49.992  49.269  38.903  0.00  0.00    +0.000 N 
ATOM      4  N   UNL     1      51.857  49.761  39.900  0.00  0.00    +0.000 NA
ATOM      5  N   UNL     1      49.682  49.113  40.191  0.00  0.00    +0.000 NA
ATOM      6  C   UNL     1      51.866  49.910  37.348  0.00  0.00    +0.000 C 
ATOM      7  C   UNL     1      49.697  48.905  36.539  0.00  0.00    +0.000 C 
ATOM      8  C   UNL     1      51.291  49.644  38.717  0.00  0.00    +0.000 A 
ATOM      9  C   UNL     1      48.996  49.125  37.867  0.00  0.00    +0.000 C 
ATOM     10  C   UNL     1      50.772  50.854  35.318  0.00  0.00    +0.000 C 
ATOM     11  C   UNL     1      50.850  49.412  40.800  0.00  0.00    +0.000 A 
ENDROOT
BRANCH  11  15
ATOM     12  F   UNL     1      51.194  48.139  42.811  0.00  0.00    +0.000 F 
ATOM     13  F   UNL     1      49.948  49.924  42.953  0.00  0.00    +0.000 F 
ATOM     14  F   UNL     1      52.107  50.116  42.704  0.00  0.00    +0.000 F 
ATOM     15  C   UNL     1      51.023  49.392  42.306  0.00  0.00    +0.000 C 
ENDBRANCH  11  15
BRANCH   6  16
ATOM     16  C   UNL     1      52.943  48.895  36.936  0.00  0.00    +0.000 C 
BRANCH  16  17
ATOM     17  N   UNL     1      54.247  49.449  36.646  0.00  0.00    +0.000 N 
ATOM     18  N   UNL     1      54.993  48.931  35.651  0.00  0.00    +0.000 NA
ATOM     19  N   UNL     1      55.953  50.806  36.526  0.00  0.00    +0.000 NA
ATOM     20  C   UNL     1      54.817  50.576  37.144  0.00  0.00    +0.000 A 
ATOM     21  C   UNL     1      56.028  49.776  35.635  0.00  0.00    +0.000 A 
ENDBRANCH  16  17
ENDBRANCH   6  16
BRANCH  10  22
ATOM     22  C   UNL     1      49.557  50.878  34.395  0.00  0.00    +0.000 C 
BRANCH  22  23
ATOM     23  C   UNL     1      48.606  52.068  34.598  0.00  0.00    +0.000 C 
BRANCH  23  24
ATOM     24  N   UNL     1      49.383  53.320  34.477  0.00  0.00    +0.000 NA
ATOM     25  H   UNL     1      49.531  53.719  35.405  0.00  0.00    +0.000 HD
ATOM     26  H   UNL     1      48.857  54.019  33.952  0.00  0.00    +0.000 HD
ENDBRANCH  23  24
BRANCH  23  27
ATOM     27  C   UNL     1      47.803  52.035  35.925  0.00  0.00    +0.000 C 
BRANCH  27  30
ATOM     28  F   UNL     1      43.501  52.176  33.605  0.00  0.00    +0.000 F 
ATOM     29  F   UNL     1      42.243  50.997  35.733  0.00  0.00    +0.000 F 
ATOM     30  C   UNL     1      46.327  51.702  35.856  0.00  0.00    +0.000 A 
ATOM     31  C   UNL     1      45.577  52.056  34.723  0.00  0.00    +0.000 A 
ATOM     32  C   UNL     1      45.661  51.111  36.944  0.00  0.00    +0.000 A 
ATOM     33  C   UNL     1      44.203  51.816  34.688  0.00  0.00    +0.000 A 
ATOM     34  C   UNL     1      44.286  50.865  36.898  0.00  0.00    +0.000 A 
ATOM     35  C   UNL     1      43.563  51.222  35.768  0.00  0.00    +0.000 A 
ENDBRANCH  27  30
ENDBRANCH  23  27
ENDBRANCH  22  23
ENDBRANCH  10  22
TORSDOF 8
ENDMDL
MODEL 8
REMARK VINA RESULT:      -7.4     21.357     22.730
REMARK  Name = 10479823
REMARK  8 active torsions:
REMARK  status: ('A' for Active; 'I' for Inactive)
REMARK    1  A    between atoms: N_10  and  C_19
REMARK    2  A    between atoms: N_12  and  C_22
REMARK    3  A    between atoms: C_15  and  C_19
REMARK    4  A    between atoms: C_20  and  C_21
REMARK    5  A    between atoms: C_21  and  C_22
REMARK    6  A    between atoms: C_22  and  C_24
REMARK    7  A    between atoms: C_23  and  C_26
REMARK    8  A    between atoms: C_24  and  C_25
REMARK                            x       y       z     vdW  Elec       q    Type
REMARK                         _______ _______ _______ _____ _____    ______ ____
ROOT
ATOM      1  O   UNL     1      45.437  50.624  37.210  0.00  0.00    +0.000 OA
ATOM      2  N   UNL     1      47.238  51.630  36.229  0.00  0.00    +0.000 N 
ATOM      3  N   UNL     1      49.522  50.996  34.854  0.00  0.00    +0.000 N 
ATOM      4  N   UNL     1      50.286  49.495  36.225  0.00  0.00    +0.000 NA
ATOM      5  N   UNL     1      50.582  50.518  34.199  0.00  0.00    +0.000 NA
ATOM      6  C   UNL     1      48.192  50.754  36.978  0.00  0.00    +0.000 C 
ATOM      7  C   UNL     1      47.840  52.648  35.349  0.00  0.00    +0.000 C 
ATOM      8  C   UNL     1      49.343  50.401  36.069  0.00  0.00    +0.000 A 
ATOM      9  C   UNL     1      48.647  51.976  34.254  0.00  0.00    +0.000 C 
ATOM     10  C   UNL     1      45.868  51.450  36.409  0.00  0.00    +0.000 C 
ATOM     11  C   UNL     1      51.054  49.594  35.064  0.00  0.00    +0.000 A 
ENDROOT
BRANCH  11  15
ATOM     12  F   UNL     1      52.121  47.932  33.693  0.00  0.00    +0.000 F 
ATOM     13  F   UNL     1      52.594  47.932  35.823  0.00  0.00    +0.000 F 
ATOM     14  F   UNL     1      53.379  49.504  34.529  0.00  0.00    +0.000 F 
ATOM     15  C   UNL     1      52.275  48.743  34.776  0.00  0.00    +0.000 C 
ENDBRANCH  11  15
BRANCH   6  16
ATOM     16  C   UNL     1      48.638  51.438  38.280  0.00  0.00    +0.000 C 
BRANCH  16  17
ATOM     17  N   UNL     1      48.484  50.652  39.484  0.00  0.00    +0.000 N 
ATOM     18  N   UNL     1      47.259  50.457  40.011  0.00  0.00    +0.000 NA
ATOM     19  N   UNL     1      48.844  49.236  41.106  0.00  0.00    +0.000 NA
ATOM     20  C   UNL     1      49.415  49.904  40.131  0.00  0.00    +0.000 A 
ATOM     21  C   UNL     1      47.536  49.610  41.007  0.00  0.00    +0.000 A 
ENDBRANCH  16  17
ENDBRANCH   6  16
BRANCH  10  22
ATOM     22  C   UNL     1      44.949  52.305  35.542  0.00  0.00    +0.000 C 
BRANCH  22  23
ATOM     23  C   UNL     1      44.374  51.598  34.305  0.00  0.00    +0.000 C 
BRANCH  23  24
ATOM     24  N   UNL     1      45.149  52.015  33.118  0.00  0.00    +0.000 NA
ATOM     25  H   UNL     1      45.279  53.028  33.135  0.00  0.00    +0.000 HD
ATOM     26  H   UNL     1      44.632  51.813  32.262  0.00  0.00    +0.000 HD
ENDBRANCH  23  24
BRANCH  23  27
ATOM     27  C   UNL     1      42.853  51.817  34.085  0.00  0.00    +0.000 C 
BRANCH  27  30
ATOM     28  F   UNL     1      40.431  48.651  36.915  0.00  0.00    +0.000 F 
ATOM     29  F   UNL     1      39.192  50.695  38.251  0.00  0.00    +0.000 F 
ATOM     30  C   UNL     1      41.917  51.523  35.239  0.00  0.00    +0.000 A 
ATOM     31  C   UNL     1      41.626  50.196  35.591  0.00  0.00    +0.000 A 
ATOM     32  C   UNL     1      41.260  52.559  35.926  0.00  0.00    +0.000 A 
ATOM     33  C   UNL     1      40.708  49.924  36.605  0.00  0.00    +0.000 A 
ATOM     34  C   UNL     1      40.348  52.280  36.947  0.00  0.00    +0.000 A 
ATOM     35  C   UNL     1      40.076  50.960  37.280  0.00  0.00    +0.000 A 
ENDBRANCH  27  30
ENDBRANCH  23  27
ENDBRANCH  22  23
ENDBRANCH  10  22
TORSDOF 8
ENDMDL
MODEL 9
REMARK VINA RESULT:      -7.4     25.322     27.556
REMARK  Name = 10479823
REMARK  8 active torsions:
REMARK  status: ('A' for Active; 'I' for Inactive)
REMARK    1  A    between atoms: N_10  and  C_19
REMARK    2  A    between atoms: N_12  and  C_22
REMARK    3  A    between atoms: C_15  and  C_19
REMARK    4  A    between atoms: C_20  and  C_21
REMARK    5  A    between atoms: C_21  and  C_22
REMARK    6  A    between atoms: C_22  and  C_24
REMARK    7  A    between atoms: C_23  and  C_26
REMARK    8  A    between atoms: C_24  and  C_25
REMARK                            x       y       z     vdW  Elec       q    Type
REMARK                         _______ _______ _______ _____ _____    ______ ____
ROOT
ATOM      1  O   UNL     1      39.826  49.638  41.646  0.00  0.00    +0.000 OA
ATOM      2  N   UNL     1      39.840  49.619  43.930  0.00  0.00    +0.000 N 
ATOM      3  N   UNL     1      38.465  48.539  46.042  0.00  0.00    +0.000 N 
ATOM      4  N   UNL     1      36.465  49.102  45.410  0.00  0.00    +0.000 NA
ATOM      5  N   UNL     1      37.695  47.934  46.947  0.00  0.00    +0.000 NA
ATOM      6  C   UNL     1      38.392  49.993  43.986  0.00  0.00    +0.000 C 
ATOM      7  C   UNL     1      40.529  49.479  45.226  0.00  0.00    +0.000 C 
ATOM      8  C   UNL     1      37.742  49.249  45.126  0.00  0.00    +0.000 A 
ATOM      9  C   UNL     1      39.898  48.358  46.030  0.00  0.00    +0.000 C 
ATOM     10  C   UNL     1      40.446  49.441  42.689  0.00  0.00    +0.000 C 
ATOM     11  C   UNL     1      36.455  48.298  46.551  0.00  0.00    +0.000 A 
ENDROOT
BRANCH  11  15
ATOM     12  F   UNL     1      34.233  48.808  47.311  0.00  0.00    +0.000 F 
ATOM     13  F   UNL     1      35.442  47.487  48.557  0.00  0.00    +0.000 F 
ATOM     14  F   UNL     1      34.629  46.765  46.665  0.00  0.00    +0.000 F 
ATOM     15  C   UNL     1      35.197  47.849  47.266  0.00  0.00    +0.000 C 
ENDBRANCH  11  15
BRANCH   6  16
ATOM     16  C   UNL     1      38.236  51.518  44.094  0.00  0.00    +0.000 C 
BRANCH  16  17
ATOM     17  N   UNL     1      37.239  52.108  43.230  0.00  0.00    +0.000 N 
ATOM     18  N   UNL     1      37.603  52.655  42.054  0.00  0.00    +0.000 NA
ATOM     19  N   UNL     1      35.334  52.606  42.286  0.00  0.00    +0.000 NA
ATOM     20  C   UNL     1      35.886  52.066  43.347  0.00  0.00    +0.000 A 
ATOM     21  C   UNL     1      36.412  52.963  41.530  0.00  0.00    +0.000 A 
ENDBRANCH  16  17
ENDBRANCH   6  16
BRANCH  10  22
ATOM     22  C   UNL     1      41.895  48.961  42.700  0.00  0.00    +0.000 C 
BRANCH  22  23
ATOM     23  C   UNL     1      42.114  47.532  42.183  0.00  0.00    +0.000 C 
BRANCH  23  24
ATOM     24  N   UNL     1      42.598  46.693  43.299  0.00  0.00    +0.000 NA
ATOM     25  H   UNL     1      43.617  46.631  43.261  0.00  0.00    +0.000 HD
ATOM     26  H   UNL     1      42.256  45.737  43.203  0.00  0.00    +0.000 HD
ENDBRANCH  23  24
BRANCH  23  27
ATOM     27  C   UNL     1      43.058  47.427  40.955  0.00  0.00    +0.000 C 
BRANCH  27  30
ATOM     28  F   UNL     1      40.507  49.036  37.107  0.00  0.00    +0.000 F 
ATOM     29  F   UNL     1      42.399  50.941  36.568  0.00  0.00    +0.000 F 
ATOM     30  C   UNL     1      42.859  48.407  39.818  0.00  0.00    +0.000 A 
ATOM     31  C   UNL     1      41.730  48.305  38.988  0.00  0.00    +0.000 A 
ATOM     32  C   UNL     1      43.826  49.382  39.516  0.00  0.00    +0.000 A 
ATOM     33  C   UNL     1      41.582  49.160  37.897  0.00  0.00    +0.000 A 
ATOM     34  C   UNL     1      43.667  50.241  38.427  0.00  0.00    +0.000 A 
ATOM     35  C   UNL     1      42.543  50.124  37.620  0.00  0.00    +0.000 A 
ENDBRANCH  27  30
ENDBRANCH  23  27
ENDBRANCH  22  23
ENDBRANCH  10  22
TORSDOF 8
ENDMDL
