MODEL 1
REMARK VINA RESULT:      -8.0      0.000      0.000
REMARK  Name = 11726565
REMARK  7 active torsions:
REMARK  status: ('A' for Active; 'I' for Inactive)
REMARK    1  A    between atoms: O_5  and  C_19
REMARK    2  A    between atoms: O_5  and  C_26
REMARK    3  A    between atoms: N_9  and  C_14
REMARK    4  A    between atoms: C_14  and  C_15
REMARK    5  A    between atoms: C_14  and  C_18
REMARK    6  A    between atoms: C_15  and  C_17
REMARK    7  A    between atoms: C_18  and  C_20
REMARK                            x       y       z     vdW  Elec       q    Type
REMARK                         _______ _______ _______ _____ _____    ______ ____
ROOT
ATOM      1  C   UNL     1      46.379  74.971  49.577  0.00  0.00    +0.000 C 
ENDROOT
BRANCH   1   2
ATOM      2  N   UNL     1      44.918  74.775  49.466  0.00  0.00    +0.000 NA
ATOM      3  H   UNL     1      44.480  74.946  50.372  0.00  0.00    +0.000 HD
ATOM      4  H   UNL     1      44.525  75.476  48.836  0.00  0.00    +0.000 HD
ENDBRANCH   1   2
BRANCH   1   5
ATOM      5  C   UNL     1      47.038  73.646  49.138  0.00  0.00    +0.000 C 
BRANCH   5  15
ATOM      6  O   UNL     1      45.852  72.508  50.867  0.00  0.00    +0.000 OA
ATOM      7  N   UNL     1      47.519  71.297  49.881  0.00  0.00    +0.000 N 
ATOM      8  N   UNL     1      49.522  69.676  50.852  0.00  0.00    +0.000 N 
ATOM      9  N   UNL     1      51.028  70.306  49.398  0.00  0.00    +0.000 NA
ATOM     10  N   UNL     1      51.641  69.528  50.356  0.00  0.00    +0.000 NA
ATOM     11  C   UNL     1      47.128  70.061  50.582  0.00  0.00    +0.000 C 
ATOM     12  C   UNL     1      48.242  69.583  51.517  0.00  0.00    +0.000 C 
ATOM     13  C   UNL     1      48.689  71.158  49.006  0.00  0.00    +0.000 C 
ATOM     14  C   UNL     1      49.755  70.402  49.714  0.00  0.00    +0.000 A 
ATOM     15  C   UNL     1      46.764  72.448  50.039  0.00  0.00    +0.000 C 
ATOM     16  C   UNL     1      50.723  69.165  51.228  0.00  0.00    +0.000 A 
BRANCH  16  17
ATOM     17  O   UNL     1      50.907  68.429  52.320  0.00  0.00    +0.000 OA
ATOM     18  C   UNL     1      51.983  68.880  53.142  0.00  0.00    +0.000 C 
ENDBRANCH  16  17
ENDBRANCH   5  15
ENDBRANCH   1   5
BRANCH   1  19
ATOM     19  C   UNL     1      46.824  76.185  48.725  0.00  0.00    +0.000 C 
BRANCH  19  23
ATOM     20  F   UNL     1      45.310  78.119  50.216  0.00  0.00    +0.000 F 
ATOM     21  F   UNL     1      50.726  78.737  50.208  0.00  0.00    +0.000 F 
ATOM     22  F   UNL     1      49.142  80.457  51.635  0.00  0.00    +0.000 F 
ATOM     23  C   UNL     1      47.429  77.363  49.467  0.00  0.00    +0.000 A 
ATOM     24  C   UNL     1      46.641  78.261  50.198  0.00  0.00    +0.000 A 
ATOM     25  C   UNL     1      48.824  77.544  49.476  0.00  0.00    +0.000 A 
ATOM     26  C   UNL     1      49.393  78.590  50.203  0.00  0.00    +0.000 A 
ATOM     27  C   UNL     1      47.209  79.310  50.924  0.00  0.00    +0.000 A 
ATOM     28  C   UNL     1      48.590  79.463  50.926  0.00  0.00    +0.000 A 
ENDBRANCH  19  23
ENDBRANCH   1  19
TORSDOF 6
ENDMDL
MODEL 2
REMARK VINA RESULT:      -7.8     26.768     28.065
REMARK  Name = 11726565
REMARK  7 active torsions:
REMARK  status: ('A' for Active; 'I' for Inactive)
REMARK    1  A    between atoms: O_5  and  C_19
REMARK    2  A    between atoms: O_5  and  C_26
REMARK    3  A    between atoms: N_9  and  C_14
REMARK    4  A    between atoms: C_14  and  C_15
REMARK    5  A    between atoms: C_14  and  C_18
REMARK    6  A    between atoms: C_15  and  C_17
REMARK    7  A    between atoms: C_18  and  C_20
REMARK                            x       y       z     vdW  Elec       q    Type
REMARK                         _______ _______ _______ _____ _____    ______ ____
ROOT
ATOM      1  C   UNL     1      45.789  52.409  33.668  0.00  0.00    +0.000 C 
ENDROOT
BRANCH   1   2
ATOM      2  N   UNL     1      45.489  53.794  33.246  0.00  0.00    +0.000 NA
ATOM      3  H   UNL     1      44.948  53.779  32.381  0.00  0.00    +0.000 HD
ATOM      4  H   UNL     1      44.886  54.239  33.939  0.00  0.00    +0.000 HD
ENDBRANCH   1   2
BRANCH   1   5
ATOM      5  C   UNL     1      47.178  52.062  33.091  0.00  0.00    +0.000 C 
BRANCH   5  15
ATOM      6  O   UNL     1      48.515  53.851  33.929  0.00  0.00    +0.000 OA
ATOM      7  N   UNL     1      49.236  51.759  34.497  0.00  0.00    +0.000 N 
ATOM      8  N   UNL     1      51.705  50.541  34.526  0.00  0.00    +0.000 N 
ATOM      9  N   UNL     1      50.988  48.590  33.850  0.00  0.00    +0.000 NA
ATOM     10  N   UNL     1      52.366  48.576  33.847  0.00  0.00    +0.000 NA
ATOM     11  C   UNL     1      50.255  52.287  35.421  0.00  0.00    +0.000 C 
ATOM     12  C   UNL     1      51.666  51.922  34.951  0.00  0.00    +0.000 C 
ATOM     13  C   UNL     1      49.212  50.296  34.386  0.00  0.00    +0.000 C 
ATOM     14  C   UNL     1      50.600  49.782  34.246  0.00  0.00    +0.000 A 
ATOM     15  C   UNL     1      48.367  52.628  33.858  0.00  0.00    +0.000 C 
ATOM     16  C   UNL     1      52.781  49.761  34.246  0.00  0.00    +0.000 A 
BRANCH  16  17
ATOM     17  O   UNL     1      54.043  50.168  34.359  0.00  0.00    +0.000 OA
ATOM     18  C   UNL     1      54.825  49.373  35.250  0.00  0.00    +0.000 C 
ENDBRANCH  16  17
ENDBRANCH   5  15
ENDBRANCH   1   5
BRANCH   1  19
ATOM     19  C   UNL     1      45.723  52.291  35.211  0.00  0.00    +0.000 C 
BRANCH  19  23
ATOM     20  F   UNL     1      45.681  51.019  37.788  0.00  0.00    +0.000 F 
ATOM     21  F   UNL     1      41.045  50.888  34.924  0.00  0.00    +0.000 F 
ATOM     22  F   UNL     1      41.153  49.779  37.426  0.00  0.00    +0.000 F 
ATOM     23  C   UNL     1      44.521  51.571  35.795  0.00  0.00    +0.000 A 
ATOM     24  C   UNL     1      44.551  50.989  37.069  0.00  0.00    +0.000 A 
ATOM     25  C   UNL     1      43.314  51.521  35.072  0.00  0.00    +0.000 A 
ATOM     26  C   UNL     1      42.187  50.913  35.624  0.00  0.00    +0.000 A 
ATOM     27  C   UNL     1      43.425  50.377  37.622  0.00  0.00    +0.000 A 
ATOM     28  C   UNL     1      42.243  50.349  36.893  0.00  0.00    +0.000 A 
ENDBRANCH  19  23
ENDBRANCH   1  19
TORSDOF 6
ENDMDL
MODEL 3
REMARK VINA RESULT:      -7.3     21.885     24.027
REMARK  Name = 11726565
REMARK  7 active torsions:
REMARK  status: ('A' for Active; 'I' for Inactive)
REMARK    1  A    between atoms: O_5  and  C_19
REMARK    2  A    between atoms: O_5  and  C_26
REMARK    3  A    between atoms: N_9  and  C_14
REMARK    4  A    between atoms: C_14  and  C_15
REMARK    5  A    between atoms: C_14  and  C_18
REMARK    6  A    between atoms: C_15  and  C_17
REMARK    7  A    between atoms: C_18  and  C_20
REMARK                            x       y       z     vdW  Elec       q    Type
REMARK                         _______ _______ _______ _____ _____    ______ ____
ROOT
ATOM      1  C   UNL     1      29.568  64.106  36.869  0.00  0.00    +0.000 C 
ENDROOT
BRANCH   1   2
ATOM      2  N   UNL     1      29.385  62.837  36.133  0.00  0.00    +0.000 NA
ATOM      3  H   UNL     1      28.643  62.946  35.441  0.00  0.00    +0.000 HD
ATOM      4  H   UNL     1      30.229  62.627  35.598  0.00  0.00    +0.000 HD
ENDBRANCH   1   2
BRANCH   1   5
ATOM      5  C   UNL     1      30.678  63.857  37.912  0.00  0.00    +0.000 C 
BRANCH   5  15
ATOM      6  O   UNL     1      31.713  65.925  38.499  0.00  0.00    +0.000 OA
ATOM      7  N   UNL     1      30.328  65.051  40.093  0.00  0.00    +0.000 N 
ATOM      8  N   UNL     1      30.531  64.730  42.819  0.00  0.00    +0.000 N 
ATOM      9  N   UNL     1      29.528  62.788  42.880  0.00  0.00    +0.000 NA
ATOM     10  N   UNL     1      30.061  63.047  44.125  0.00  0.00    +0.000 NA
ATOM     11  C   UNL     1      30.411  66.264  40.926  0.00  0.00    +0.000 C 
ATOM     12  C   UNL     1      31.064  65.960  42.276  0.00  0.00    +0.000 C 
ATOM     13  C   UNL     1      29.504  63.977  40.658  0.00  0.00    +0.000 C 
ATOM     14  C   UNL     1      29.830  63.801  42.097  0.00  0.00    +0.000 A 
ATOM     15  C   UNL     1      30.959  65.017  38.859  0.00  0.00    +0.000 C 
ATOM     16  C   UNL     1      30.669  64.213  44.068  0.00  0.00    +0.000 A 
BRANCH  16  17
ATOM     17  O   UNL     1      31.333  64.816  45.052  0.00  0.00    +0.000 OA
ATOM     18  C   UNL     1      32.592  64.213  45.346  0.00  0.00    +0.000 C 
ENDBRANCH  16  17
ENDBRANCH   5  15
ENDBRANCH   1   5
BRANCH   1  19
ATOM     19  C   UNL     1      29.902  65.255  35.885  0.00  0.00    +0.000 C 
BRANCH  19  23
ATOM     20  F   UNL     1      27.894  65.404  33.835  0.00  0.00    +0.000 F 
ATOM     21  F   UNL     1      27.891  69.391  37.553  0.00  0.00    +0.000 F 
ATOM     22  F   UNL     1      26.001  69.351  35.571  0.00  0.00    +0.000 F 
ATOM     23  C   UNL     1      28.883  66.373  35.760  0.00  0.00    +0.000 A 
ATOM     24  C   UNL     1      27.911  66.380  34.752  0.00  0.00    +0.000 A 
ATOM     25  C   UNL     1      28.866  67.414  36.706  0.00  0.00    +0.000 A 
ATOM     26  C   UNL     1      27.897  68.415  36.634  0.00  0.00    +0.000 A 
ATOM     27  C   UNL     1      26.942  67.383  34.677  0.00  0.00    +0.000 A 
ATOM     28  C   UNL     1      26.940  68.395  35.628  0.00  0.00    +0.000 A 
ENDBRANCH  19  23
ENDBRANCH   1  19
TORSDOF 6
ENDMDL
MODEL 4
REMARK VINA RESULT:      -7.0     11.826     13.392
REMARK  Name = 11726565
REMARK  7 active torsions:
REMARK  status: ('A' for Active; 'I' for Inactive)
REMARK    1  A    between atoms: O_5  and  C_19
REMARK    2  A    between atoms: O_5  and  C_26
REMARK    3  A    between atoms: N_9  and  C_14
REMARK    4  A    between atoms: C_14  and  C_15
REMARK    5  A    between atoms: C_14  and  C_18
REMARK    6  A    between atoms: C_15  and  C_17
REMARK    7  A    between atoms: C_18  and  C_20
REMARK                            x       y       z     vdW  Elec       q    Type
REMARK                         _______ _______ _______ _____ _____    ______ ____
ROOT
ATOM      1  C   UNL     1      52.468  70.603  37.969  0.00  0.00    +0.000 C 
ENDROOT
BRANCH   1   2
ATOM      2  N   UNL     1      52.957  69.447  37.189  0.00  0.00    +0.000 NA
ATOM      3  H   UNL     1      53.557  69.775  36.431  0.00  0.00    +0.000 HD
ATOM      4  H   UNL     1      53.554  68.865  37.777  0.00  0.00    +0.000 HD
ENDBRANCH   1   2
BRANCH   1   5
ATOM      5  C   UNL     1      53.340  71.811  37.566  0.00  0.00    +0.000 C 
BRANCH   5  15
ATOM      6  O   UNL     1      55.017  71.098  36.027  0.00  0.00    +0.000 OA
ATOM      7  N   UNL     1      55.788  71.660  38.103  0.00  0.00    +0.000 N 
ATOM      8  N   UNL     1      57.578  70.502  39.845  0.00  0.00    +0.000 N 
ATOM      9  N   UNL     1      56.461  70.997  41.658  0.00  0.00    +0.000 NA
ATOM     10  N   UNL     1      57.493  70.148  41.996  0.00  0.00    +0.000 NA
ATOM     11  C   UNL     1      57.196  71.562  37.682  0.00  0.00    +0.000 C 
ATOM     12  C   UNL     1      57.922  70.450  38.442  0.00  0.00    +0.000 C 
ATOM     13  C   UNL     1      55.596  72.006  39.517  0.00  0.00    +0.000 C 
ATOM     14  C   UNL     1      56.511  71.191  40.358  0.00  0.00    +0.000 A 
ATOM     15  C   UNL     1      54.775  71.482  37.174  0.00  0.00    +0.000 C 
ATOM     16  C   UNL     1      58.149  69.852  40.893  0.00  0.00    +0.000 A 
BRANCH  16  17
ATOM     17  O   UNL     1      59.198  69.042  40.781  0.00  0.00    +0.000 OA
ATOM     18  C   UNL     1      58.944  67.710  41.225  0.00  0.00    +0.000 C 
ENDBRANCH  16  17
ENDBRANCH   5  15
ENDBRANCH   1   5
BRANCH   1  19
ATOM     19  C   UNL     1      50.958  70.827  37.708  0.00  0.00    +0.000 C 
BRANCH  19  23
ATOM     20  F   UNL     1      50.719  69.801  40.382  0.00  0.00    +0.000 F 
ATOM     21  F   UNL     1      48.193  74.518  39.342  0.00  0.00    +0.000 F 
ATOM     22  F   UNL     1      48.117  73.438  41.857  0.00  0.00    +0.000 F 
ATOM     23  C   UNL     1      50.159  71.490  38.815  0.00  0.00    +0.000 A 
ATOM     24  C   UNL     1      50.098  70.956  40.109  0.00  0.00    +0.000 A 
ATOM     25  C   UNL     1      49.496  72.707  38.569  0.00  0.00    +0.000 A 
ATOM     26  C   UNL     1      48.807  73.354  39.595  0.00  0.00    +0.000 A 
ATOM     27  C   UNL     1      49.407  71.600  41.136  0.00  0.00    +0.000 A 
ATOM     28  C   UNL     1      48.768  72.805  40.870  0.00  0.00    +0.000 A 
ENDBRANCH  19  23
ENDBRANCH   1  19
TORSDOF 6
ENDMDL
MODEL 5
REMARK VINA RESULT:      -6.8     20.270     22.547
REMARK  Name = 11726565
REMARK  7 active torsions:
REMARK  status: ('A' for Active; 'I' for Inactive)
REMARK    1  A    between atoms: O_5  and  C_19
REMARK    2  A    between atoms: O_5  and  C_26
REMARK    3  A    between atoms: N_9  and  C_14
REMARK    4  A    between atoms: C_14  and  C_15
REMARK    5  A    between atoms: C_14  and  C_18
REMARK    6  A    between atoms: C_15  and  C_17
REMARK    7  A    between atoms: C_18  and  C_20
REMARK                            x       y       z     vdW  Elec       q    Type
REMARK                         _______ _______ _______ _____ _____    ______ ____
ROOT
ATOM      1  C   UNL     1      28.790  64.526  39.565  0.00  0.00    +0.000 C 
ENDROOT
BRANCH   1   2
ATOM      2  N   UNL     1      28.180  63.180  39.598  0.00  0.00    +0.000 NA
ATOM      3  H   UNL     1      27.559  63.105  40.405  0.00  0.00    +0.000 HD
ATOM      4  H   UNL     1      27.583  63.054  38.781  0.00  0.00    +0.000 HD
ENDBRANCH   1   2
BRANCH   1   5
ATOM      5  C   UNL     1      28.954  64.975  41.032  0.00  0.00    +0.000 C 
BRANCH   5  15
ATOM      6  O   UNL     1      29.008  62.943  42.280  0.00  0.00    +0.000 OA
ATOM      7  N   UNL     1      30.919  64.189  42.383  0.00  0.00    +0.000 N 
ATOM      8  N   UNL     1      32.600  64.930  44.434  0.00  0.00    +0.000 N 
ATOM      9  N   UNL     1      32.993  66.940  43.672  0.00  0.00    +0.000 NA
ATOM     10  N   UNL     1      33.524  66.839  44.940  0.00  0.00    +0.000 NA
ATOM     11  C   UNL     1      31.656  63.126  43.089  0.00  0.00    +0.000 C 
ATOM     12  C   UNL     1      32.074  63.583  44.489  0.00  0.00    +0.000 C 
ATOM     13  C   UNL     1      31.693  65.414  42.145  0.00  0.00    +0.000 C 
ATOM     14  C   UNL     1      32.425  65.790  43.383  0.00  0.00    +0.000 A 
ATOM     15  C   UNL     1      29.620  63.963  41.957  0.00  0.00    +0.000 C 
ATOM     16  C   UNL     1      33.271  65.627  45.387  0.00  0.00    +0.000 A 
BRANCH  16  17
ATOM     17  O   UNL     1      33.592  65.133  46.580  0.00  0.00    +0.000 OA
ATOM     18  C   UNL     1      32.765  65.609  47.640  0.00  0.00    +0.000 C 
ENDBRANCH  16  17
ENDBRANCH   5  15
ENDBRANCH   1   5
BRANCH   1  19
ATOM     19  C   UNL     1      30.127  64.491  38.785  0.00  0.00    +0.000 C 
BRANCH  19  23
ATOM     20  F   UNL     1      32.071  66.466  38.025  0.00  0.00    +0.000 F 
ATOM     21  F   UNL     1      28.353  65.128  34.271  0.00  0.00    +0.000 F 
ATOM     22  F   UNL     1      30.315  66.946  33.683  0.00  0.00    +0.000 F 
ATOM     23  C   UNL     1      30.159  65.193  37.440  0.00  0.00    +0.000 A 
ATOM     24  C   UNL     1      31.147  66.132  37.116  0.00  0.00    +0.000 A 
ATOM     25  C   UNL     1      29.207  64.866  36.456  0.00  0.00    +0.000 A 
ATOM     26  C   UNL     1      29.262  65.463  35.197  0.00  0.00    +0.000 A 
ATOM     27  C   UNL     1      31.202  66.732  35.857  0.00  0.00    +0.000 A 
ATOM     28  C   UNL     1      30.257  66.386  34.899  0.00  0.00    +0.000 A 
ENDBRANCH  19  23
ENDBRANCH   1  19
TORSDOF 6
ENDMDL
MODEL 6
REMARK VINA RESULT:      -6.6     20.432     22.624
REMARK  Name = 11726565
REMARK  7 active torsions:
REMARK  status: ('A' for Active; 'I' for Inactive)
REMARK    1  A    between atoms: O_5  and  C_19
REMARK    2  A    between atoms: O_5  and  C_26
REMARK    3  A    between atoms: N_9  and  C_14
REMARK    4  A    between atoms: C_14  and  C_15
REMARK    5  A    between atoms: C_14  and  C_18
REMARK    6  A    between atoms: C_15  and  C_17
REMARK    7  A    between atoms: C_18  and  C_20
REMARK                            x       y       z     vdW  Elec       q    Type
REMARK                         _______ _______ _______ _____ _____    ______ ____
ROOT
ATOM      1  C   UNL     1      29.849  64.768  39.596  0.00  0.00    +0.000 C 
ENDROOT
BRANCH   1   2
ATOM      2  N   UNL     1      28.884  63.875  40.272  0.00  0.00    +0.000 NA
ATOM      3  H   UNL     1      29.355  63.365  41.020  0.00  0.00    +0.000 HD
ATOM      4  H   UNL     1      28.165  64.434  40.732  0.00  0.00    +0.000 HD
ENDBRANCH   1   2
BRANCH   1   5
ATOM      5  C   UNL     1      31.027  64.968  40.572  0.00  0.00    +0.000 C 
BRANCH   5  15
ATOM      6  O   UNL     1      29.823  66.092  42.298  0.00  0.00    +0.000 OA
ATOM      7  N   UNL     1      31.180  64.399  43.012  0.00  0.00    +0.000 N 
ATOM      8  N   UNL     1      32.969  64.142  45.090  0.00  0.00    +0.000 N 
ATOM      9  N   UNL     1      34.428  62.960  43.970  0.00  0.00    +0.000 NA
ATOM     10  N   UNL     1      34.985  63.315  45.181  0.00  0.00    +0.000 NA
ATOM     11  C   UNL     1      30.655  64.465  44.388  0.00  0.00    +0.000 C 
ATOM     12  C   UNL     1      31.751  64.868  45.377  0.00  0.00    +0.000 C 
ATOM     13  C   UNL     1      32.234  63.397  42.810  0.00  0.00    +0.000 C 
ATOM     14  C   UNL     1      33.219  63.476  43.920  0.00  0.00    +0.000 A 
ATOM     15  C   UNL     1      30.639  65.208  42.026  0.00  0.00    +0.000 C 
ATOM     16  C   UNL     1      34.097  64.033  45.837  0.00  0.00    +0.000 A 
BRANCH  16  17
ATOM     17  O   UNL     1      34.251  64.590  47.036  0.00  0.00    +0.000 OA
ATOM     18  C   UNL     1      35.171  63.895  47.877  0.00  0.00    +0.000 C 
ENDBRANCH  16  17
ENDBRANCH   5  15
ENDBRANCH   1   5
BRANCH   1  19
ATOM     19  C   UNL     1      30.279  64.164  38.236  0.00  0.00    +0.000 C 
BRANCH  19  23
ATOM     20  F   UNL     1      31.679  66.133  36.680  0.00  0.00    +0.000 F 
ATOM     21  F   UNL     1      26.762  64.633  34.869  0.00  0.00    +0.000 F 
ATOM     22  F   UNL     1      28.254  66.451  33.466  0.00  0.00    +0.000 F 
ATOM     23  C   UNL     1      29.728  64.822  36.985  0.00  0.00    +0.000 A 
ATOM     24  C   UNL     1      30.467  65.759  36.252  0.00  0.00    +0.000 A 
ATOM     25  C   UNL     1      28.459  64.453  36.500  0.00  0.00    +0.000 A 
ATOM     26  C   UNL     1      27.967  65.008  35.319  0.00  0.00    +0.000 A 
ATOM     27  C   UNL     1      29.975  66.318  35.071  0.00  0.00    +0.000 A 
ATOM     28  C   UNL     1      28.724  65.931  34.608  0.00  0.00    +0.000 A 
ENDBRANCH  19  23
ENDBRANCH   1  19
TORSDOF 6
ENDMDL
MODEL 7
REMARK VINA RESULT:      -6.5     11.007     12.496
REMARK  Name = 11726565
REMARK  7 active torsions:
REMARK  status: ('A' for Active; 'I' for Inactive)
REMARK    1  A    between atoms: O_5  and  C_19
REMARK    2  A    between atoms: O_5  and  C_26
REMARK    3  A    between atoms: N_9  and  C_14
REMARK    4  A    between atoms: C_14  and  C_15
REMARK    5  A    between atoms: C_14  and  C_18
REMARK    6  A    between atoms: C_15  and  C_17
REMARK    7  A    between atoms: C_18  and  C_20
REMARK                            x       y       z     vdW  Elec       q    Type
REMARK                         _______ _______ _______ _____ _____    ______ ____
ROOT
ATOM      1  C   UNL     1      51.053  69.825  38.186  0.00  0.00    +0.000 C 
ENDROOT
BRANCH   1   2
ATOM      2  N   UNL     1      51.639  69.251  36.956  0.00  0.00    +0.000 NA
ATOM      3  H   UNL     1      50.919  69.175  36.237  0.00  0.00    +0.000 HD
ATOM      4  H   UNL     1      52.337  69.893  36.579  0.00  0.00    +0.000 HD
ENDBRANCH   1   2
BRANCH   1   5
ATOM      5  C   UNL     1      52.104  70.792  38.770  0.00  0.00    +0.000 C 
BRANCH   5  15
ATOM      6  O   UNL     1      52.111  70.147  41.066  0.00  0.00    +0.000 OA
ATOM      7  N   UNL     1      54.147  70.065  40.035  0.00  0.00    +0.000 N 
ATOM      8  N   UNL     1      56.678  70.876  40.755  0.00  0.00    +0.000 N 
ATOM      9  N   UNL     1      57.257  71.559  38.761  0.00  0.00    +0.000 NA
ATOM     10  N   UNL     1      58.229  71.949  39.658  0.00  0.00    +0.000 NA
ATOM     11  C   UNL     1      54.782  69.404  41.189  0.00  0.00    +0.000 C 
ATOM     12  C   UNL     1      55.870  70.290  41.801  0.00  0.00    +0.000 C 
ATOM     13  C   UNL     1      55.056  70.343  38.916  0.00  0.00    +0.000 C 
ATOM     14  C   UNL     1      56.321  70.928  39.434  0.00  0.00    +0.000 A 
ATOM     15  C   UNL     1      52.786  70.324  40.050  0.00  0.00    +0.000 C 
ATOM     16  C   UNL     1      57.860  71.538  40.854  0.00  0.00    +0.000 A 
BRANCH  16  17
ATOM     17  O   UNL     1      58.508  71.734  42.000  0.00  0.00    +0.000 OA
ATOM     18  C   UNL     1      59.891  71.390  41.941  0.00  0.00    +0.000 C 
ENDBRANCH  16  17
ENDBRANCH   5  15
ENDBRANCH   1   5
BRANCH   1  19
ATOM     19  C   UNL     1      49.702  70.513  37.867  0.00  0.00    +0.000 C 
BRANCH  19  23
ATOM     20  F   UNL     1      48.828  69.594  40.446  0.00  0.00    +0.000 F 
ATOM     21  F   UNL     1      48.413  74.944  39.491  0.00  0.00    +0.000 F 
ATOM     22  F   UNL     1      47.685  73.916  41.922  0.00  0.00    +0.000 F 
ATOM     23  C   UNL     1      49.113  71.406  38.944  0.00  0.00    +0.000 A 
ATOM     24  C   UNL     1      48.726  70.905  40.194  0.00  0.00    +0.000 A 
ATOM     25  C   UNL     1      48.993  72.790  38.719  0.00  0.00    +0.000 A 
ATOM     26  C   UNL     1      48.507  73.627  39.722  0.00  0.00    +0.000 A 
ATOM     27  C   UNL     1      48.237  71.741  41.199  0.00  0.00    +0.000 A 
ATOM     28  C   UNL     1      48.137  73.105  40.955  0.00  0.00    +0.000 A 
ENDBRANCH  19  23
ENDBRANCH   1  19
TORSDOF 6
ENDMDL
MODEL 8
REMARK VINA RESULT:      -6.5     12.078     13.679
REMARK  Name = 11726565
REMARK  7 active torsions:
REMARK  status: ('A' for Active; 'I' for Inactive)
REMARK    1  A    between atoms: O_5  and  C_19
REMARK    2  A    between atoms: O_5  and  C_26
REMARK    3  A    between atoms: N_9  and  C_14
REMARK    4  A    between atoms: C_14  and  C_15
REMARK    5  A    between atoms: C_14  and  C_18
REMARK    6  A    between atoms: C_15  and  C_17
REMARK    7  A    between atoms: C_18  and  C_20
REMARK                            x       y       z     vdW  Elec       q    Type
REMARK                         _______ _______ _______ _____ _____    ______ ____
ROOT
ATOM      1  C   UNL     1      51.177  68.940  38.295  0.00  0.00    +0.000 C 
ENDROOT
BRANCH   1   2
ATOM      2  N   UNL     1      51.417  67.587  37.749  0.00  0.00    +0.000 NA
ATOM      3  H   UNL     1      50.625  66.983  37.969  0.00  0.00    +0.000 HD
ATOM      4  H   UNL     1      51.453  67.631  36.730  0.00  0.00    +0.000 HD
ENDBRANCH   1   2
BRANCH   1   5
ATOM      5  C   UNL     1      51.699  69.942  37.244  0.00  0.00    +0.000 C 
BRANCH   5  15
ATOM      6  O   UNL     1      53.278  68.802  35.865  0.00  0.00    +0.000 OA
ATOM      7  N   UNL     1      54.160  70.438  37.194  0.00  0.00    +0.000 N 
ATOM      8  N   UNL     1      56.394  70.588  38.796  0.00  0.00    +0.000 N 
ATOM      9  N   UNL     1      55.443  71.761  40.377  0.00  0.00    +0.000 NA
ATOM     10  N   UNL     1      56.686  71.358  40.816  0.00  0.00    +0.000 NA
ATOM     11  C   UNL     1      55.480  70.347  36.547  0.00  0.00    +0.000 C 
ATOM     12  C   UNL     1      56.549  69.887  37.541  0.00  0.00    +0.000 C 
ATOM     13  C   UNL     1      54.081  71.417  38.285  0.00  0.00    +0.000 C 
ATOM     14  C   UNL     1      55.271  71.279  39.166  0.00  0.00    +0.000 A 
ATOM     15  C   UNL     1      53.106  69.671  36.723  0.00  0.00    +0.000 C 
ATOM     16  C   UNL     1      57.240  70.646  39.857  0.00  0.00    +0.000 A 
BRANCH  16  17
ATOM     17  O   UNL     1      58.430  70.051  39.890  0.00  0.00    +0.000 OA
ATOM     18  C   UNL     1      59.522  70.943  39.671  0.00  0.00    +0.000 C 
ENDBRANCH  16  17
ENDBRANCH   5  15
ENDBRANCH   1   5
BRANCH   1  19
ATOM     19  C   UNL     1      49.675  69.128  38.623  0.00  0.00    +0.000 C 
BRANCH  19  23
ATOM     20  F   UNL     1      48.369  70.884  36.760  0.00  0.00    +0.000 F 
ATOM     21  F   UNL     1      49.084  72.784  41.819  0.00  0.00    +0.000 F 
ATOM     22  F   UNL     1      47.798  74.308  39.941  0.00  0.00    +0.000 F 
ATOM     23  C   UNL     1      49.212  70.536  38.949  0.00  0.00    +0.000 A 
ATOM     24  C   UNL     1      48.558  71.339  38.006  0.00  0.00    +0.000 A 
ATOM     25  C   UNL     1      49.389  71.049  40.247  0.00  0.00    +0.000 A 
ATOM     26  C   UNL     1      48.916  72.320  40.573  0.00  0.00    +0.000 A 
ATOM     27  C   UNL     1      48.086  72.613  38.329  0.00  0.00    +0.000 A 
ATOM     28  C   UNL     1      48.264  73.093  39.620  0.00  0.00    +0.000 A 
ENDBRANCH  19  23
ENDBRANCH   1  19
TORSDOF 6
ENDMDL
MODEL 9
REMARK VINA RESULT:      -6.5     21.739     24.414
REMARK  Name = 11726565
REMARK  7 active torsions:
REMARK  status: ('A' for Active; 'I' for Inactive)
REMARK    1  A    between atoms: O_5  and  C_19
REMARK    2  A    between atoms: O_5  and  C_26
REMARK    3  A    between atoms: N_9  and  C_14
REMARK    4  A    between atoms: C_14  and  C_15
REMARK    5  A    between atoms: C_14  and  C_18
REMARK    6  A    between atoms: C_15  and  C_17
REMARK    7  A    between atoms: C_18  and  C_20
REMARK                            x       y       z     vdW  Elec       q    Type
REMARK                         _______ _______ _______ _____ _____    ______ ____
ROOT
ATOM      1  C   UNL     1      30.950  65.143  39.989  0.00  0.00    +0.000 C 
ENDROOT
BRANCH   1   2
ATOM      2  N   UNL     1      31.874  64.348  40.826  0.00  0.00    +0.000 NA
ATOM      3  H   UNL     1      32.197  64.913  41.612  0.00  0.00    +0.000 HD
ATOM      4  H   UNL     1      31.370  63.564  41.241  0.00  0.00    +0.000 HD
ENDBRANCH   1   2
BRANCH   1   5
ATOM      5  C   UNL     1      31.014  66.593  40.515  0.00  0.00    +0.000 C 
BRANCH   5  15
ATOM      6  O   UNL     1      31.837  66.416  42.746  0.00  0.00    +0.000 OA
ATOM      7  N   UNL     1      29.739  67.301  42.558  0.00  0.00    +0.000 N 
ATOM      8  N   UNL     1      27.376  66.896  43.911  0.00  0.00    +0.000 N 
ATOM      9  N   UNL     1      26.091  67.070  42.151  0.00  0.00    +0.000 NA
ATOM     10  N   UNL     1      25.326  66.635  43.213  0.00  0.00    +0.000 NA
ATOM     11  C   UNL     1      29.690  67.664  43.986  0.00  0.00    +0.000 C 
ATOM     12  C   UNL     1      28.581  66.898  44.710  0.00  0.00    +0.000 C 
ATOM     13  C   UNL     1      28.524  67.628  41.804  0.00  0.00    +0.000 C 
ATOM     14  C   UNL     1      27.327  67.209  42.579  0.00  0.00    +0.000 A 
ATOM     15  C   UNL     1      30.893  66.749  42.026  0.00  0.00    +0.000 C 
ATOM     16  C   UNL     1      26.116  66.527  44.261  0.00  0.00    +0.000 A 
BRANCH  16  17
ATOM     17  O   UNL     1      25.775  66.113  45.478  0.00  0.00    +0.000 OA
ATOM     18  C   UNL     1      25.006  67.065  46.212  0.00  0.00    +0.000 C 
ENDBRANCH  16  17
ENDBRANCH   5  15
ENDBRANCH   1   5
BRANCH   1  19
ATOM     19  C   UNL     1      31.336  65.019  38.495  0.00  0.00    +0.000 C 
BRANCH  19  23
ATOM     20  F   UNL     1      30.520  62.651  37.086  0.00  0.00    +0.000 F 
ATOM     21  F   UNL     1      27.651  67.182  36.113  0.00  0.00    +0.000 F 
ATOM     22  F   UNL     1      26.961  64.825  34.901  0.00  0.00    +0.000 F 
ATOM     23  C   UNL     1      30.198  64.965  37.492  0.00  0.00    +0.000 A 
ATOM     24  C   UNL     1      29.829  63.774  36.852  0.00  0.00    +0.000 A 
ATOM     25  C   UNL     1      29.446  66.122  37.222  0.00  0.00    +0.000 A 
ATOM     26  C   UNL     1      28.362  66.070  36.346  0.00  0.00    +0.000 A 
ATOM     27  C   UNL     1      28.746  63.720  35.973  0.00  0.00    +0.000 A 
ATOM     28  C   UNL     1      28.013  64.874  35.730  0.00  0.00    +0.000 A 
ENDBRANCH  19  23
ENDBRANCH   1  19
TORSDOF 6
ENDMDL
