MODEL 1
REMARK VINA RESULT:      -8.3      0.000      0.000
REMARK  Name = 10194630
REMARK  7 active torsions:
REMARK  status: ('A' for Active; 'I' for Inactive)
REMARK    1  A    between atoms: N_12  and  C_20
REMARK    2  A    between atoms: C_13  and  C_19
REMARK    3  A    between atoms: C_17  and  C_18
REMARK    4  A    between atoms: C_18  and  C_20
REMARK    5  A    between atoms: C_20  and  C_22
REMARK    6  A    between atoms: C_21  and  C_23
REMARK    7  A    between atoms: C_22  and  C_24
REMARK                            x       y       z     vdW  Elec       q    Type
REMARK                         _______ _______ _______ _____ _____    ______ ____
ROOT
ATOM      1  O   UNL     1      39.805  52.428  40.122  0.00  0.00    +0.000 OA
ATOM      2  N   UNL     1      37.988  51.593  38.951  0.00  0.00    +0.000 N 
ATOM      3  N   UNL     1      36.806  50.096  36.911  0.00  0.00    +0.000 N 
ATOM      4  N   UNL     1      38.283  50.546  35.381  0.00  0.00    +0.000 NA
ATOM      5  N   UNL     1      37.402  49.617  34.877  0.00  0.00    +0.000 NA
ATOM      6  C   UNL     1      38.592  51.777  37.593  0.00  0.00    +0.000 C 
ATOM      7  C   UNL     1      36.528  51.420  38.931  0.00  0.00    +0.000 C 
ATOM      8  C   UNL     1      36.126  50.163  38.180  0.00  0.00    +0.000 C 
ATOM      9  C   UNL     1      37.932  50.821  36.620  0.00  0.00    +0.000 A 
ATOM     10  C   UNL     1      38.658  51.984  40.118  0.00  0.00    +0.000 C 
ATOM     11  C   UNL     1      40.117  51.630  37.470  0.00  0.00    +0.000 C 
ATOM     12  C   UNL     1      36.507  49.337  35.809  0.00  0.00    +0.000 A 
ENDROOT
BRANCH  12  16
ATOM     13  F   UNL     1      35.385  47.676  34.541  0.00  0.00    +0.000 F 
ATOM     14  F   UNL     1      34.165  49.002  35.750  0.00  0.00    +0.000 F 
ATOM     15  F   UNL     1      35.384  47.459  36.704  0.00  0.00    +0.000 F 
ATOM     16  C   UNL     1      35.370  48.384  35.705  0.00  0.00    +0.000 C 
ENDBRANCH  12  16
BRANCH  10  17
ATOM     17  C   UNL     1      37.907  51.790  41.438  0.00  0.00    +0.000 C 
BRANCH  17  18
ATOM     18  C   UNL     1      37.244  53.056  42.015  0.00  0.00    +0.000 C 
BRANCH  18  19
ATOM     19  N   UNL     1      37.965  53.381  43.265  0.00  0.00    +0.000 NA
ATOM     20  H   UNL     1      38.964  53.476  43.081  0.00  0.00    +0.000 HD
ATOM     21  H   UNL     1      37.885  52.591  43.908  0.00  0.00    +0.000 HD
ENDBRANCH  18  19
BRANCH  18  22
ATOM     22  C   UNL     1      35.742  52.817  42.312  0.00  0.00    +0.000 C 
BRANCH  22  26
ATOM     23  F   UNL     1      36.216  50.273  43.596  0.00  0.00    +0.000 F 
ATOM     24  F   UNL     1      34.080  54.225  46.676  0.00  0.00    +0.000 F 
ATOM     25  F   UNL     1      34.715  51.800  47.778  0.00  0.00    +0.000 F 
ATOM     26  C   UNL     1      35.360  52.487  43.741  0.00  0.00    +0.000 A 
ATOM     27  C   UNL     1      35.664  51.249  44.328  0.00  0.00    +0.000 A 
ATOM     28  C   UNL     1      34.805  53.488  44.556  0.00  0.00    +0.000 A 
ATOM     29  C   UNL     1      34.583  53.247  45.910  0.00  0.00    +0.000 A 
ATOM     30  C   UNL     1      35.436  51.006  45.680  0.00  0.00    +0.000 A 
ATOM     31  C   UNL     1      34.903  52.017  46.469  0.00  0.00    +0.000 A 
ENDBRANCH  22  26
ENDBRANCH  18  22
ENDBRANCH  17  18
ENDBRANCH  10  17
TORSDOF 6
ENDMDL
MODEL 2
REMARK VINA RESULT:      -8.1      7.617      9.439
REMARK  Name = 10194630
REMARK  7 active torsions:
REMARK  status: ('A' for Active; 'I' for Inactive)
REMARK    1  A    between atoms: N_12  and  C_20
REMARK    2  A    between atoms: C_13  and  C_19
REMARK    3  A    between atoms: C_17  and  C_18
REMARK    4  A    between atoms: C_18  and  C_20
REMARK    5  A    between atoms: C_20  and  C_22
REMARK    6  A    between atoms: C_21  and  C_23
REMARK    7  A    between atoms: C_22  and  C_24
REMARK                            x       y       z     vdW  Elec       q    Type
REMARK                         _______ _______ _______ _____ _____    ______ ____
ROOT
ATOM      1  O   UNL     1      35.785  52.491  51.956  0.00  0.00    +0.000 OA
ATOM      2  N   UNL     1      36.526  51.456  50.020  0.00  0.00    +0.000 N 
ATOM      3  N   UNL     1      36.420  49.483  48.045  0.00  0.00    +0.000 N 
ATOM      4  N   UNL     1      35.852  47.845  49.357  0.00  0.00    +0.000 NA
ATOM      5  N   UNL     1      35.827  47.393  48.059  0.00  0.00    +0.000 NA
ATOM      6  C   UNL     1      36.351  50.057  50.525  0.00  0.00    +0.000 C 
ATOM      7  C   UNL     1      37.406  51.556  48.846  0.00  0.00    +0.000 C 
ATOM      8  C   UNL     1      36.835  50.807  47.655  0.00  0.00    +0.000 C 
ATOM      9  C   UNL     1      36.192  49.117  49.347  0.00  0.00    +0.000 A 
ATOM     10  C   UNL     1      36.254  52.572  50.822  0.00  0.00    +0.000 C 
ATOM     11  C   UNL     1      35.206  49.799  51.518  0.00  0.00    +0.000 C 
ATOM     12  C   UNL     1      36.166  48.389  47.259  0.00  0.00    +0.000 A 
ENDROOT
BRANCH  12  16
ATOM     13  F   UNL     1      35.708  47.237  45.237  0.00  0.00    +0.000 F 
ATOM     14  F   UNL     1      37.551  48.377  45.340  0.00  0.00    +0.000 F 
ATOM     15  F   UNL     1      35.630  49.409  45.194  0.00  0.00    +0.000 F 
ATOM     16  C   UNL     1      36.267  48.356  45.775  0.00  0.00    +0.000 C 
ENDBRANCH  12  16
BRANCH  10  17
ATOM     17  C   UNL     1      36.525  53.946  50.202  0.00  0.00    +0.000 C 
BRANCH  17  18
ATOM     18  C   UNL     1      35.293  54.659  49.610  0.00  0.00    +0.000 C 
BRANCH  18  19
ATOM     19  N   UNL     1      34.361  54.899  50.734  0.00  0.00    +0.000 NA
ATOM     20  H   UNL     1      34.357  54.097  51.365  0.00  0.00    +0.000 HD
ATOM     21  H   UNL     1      33.410  54.957  50.368  0.00  0.00    +0.000 HD
ENDBRANCH  18  19
BRANCH  18  22
ATOM     22  C   UNL     1      34.608  53.788  48.527  0.00  0.00    +0.000 C 
BRANCH  22  26
ATOM     23  F   UNL     1      34.373  51.984  46.283  0.00  0.00    +0.000 F 
ATOM     24  F   UNL     1      35.367  57.216  45.142  0.00  0.00    +0.000 F 
ATOM     25  F   UNL     1      34.981  55.407  43.123  0.00  0.00    +0.000 F 
ATOM     26  C   UNL     1      34.827  54.178  47.079  0.00  0.00    +0.000 A 
ATOM     27  C   UNL     1      34.647  53.269  46.026  0.00  0.00    +0.000 A 
ATOM     28  C   UNL     1      35.087  55.521  46.759  0.00  0.00    +0.000 A 
ATOM     29  C   UNL     1      35.146  55.925  45.426  0.00  0.00    +0.000 A 
ATOM     30  C   UNL     1      34.712  53.672  44.694  0.00  0.00    +0.000 A 
ATOM     31  C   UNL     1      34.953  55.007  44.402  0.00  0.00    +0.000 A 
ENDBRANCH  22  26
ENDBRANCH  18  22
ENDBRANCH  17  18
ENDBRANCH  10  17
TORSDOF 6
ENDMDL
MODEL 3
REMARK VINA RESULT:      -8.1      5.962     10.447
REMARK  Name = 10194630
REMARK  7 active torsions:
REMARK  status: ('A' for Active; 'I' for Inactive)
REMARK    1  A    between atoms: N_12  and  C_20
REMARK    2  A    between atoms: C_13  and  C_19
REMARK    3  A    between atoms: C_17  and  C_18
REMARK    4  A    between atoms: C_18  and  C_20
REMARK    5  A    between atoms: C_20  and  C_22
REMARK    6  A    between atoms: C_21  and  C_23
REMARK    7  A    between atoms: C_22  and  C_24
REMARK                            x       y       z     vdW  Elec       q    Type
REMARK                         _______ _______ _______ _____ _____    ______ ____
ROOT
ATOM      1  O   UNL     1      33.980  54.726  46.214  0.00  0.00    +0.000 OA
ATOM      2  N   UNL     1      35.191  53.246  47.523  0.00  0.00    +0.000 N 
ATOM      3  N   UNL     1      35.738  51.886  49.901  0.00  0.00    +0.000 N 
ATOM      4  N   UNL     1      35.231  53.518  51.245  0.00  0.00    +0.000 NA
ATOM      5  N   UNL     1      35.498  52.398  51.999  0.00  0.00    +0.000 NA
ATOM      6  C   UNL     1      35.164  54.089  48.761  0.00  0.00    +0.000 C 
ATOM      7  C   UNL     1      36.227  52.203  47.540  0.00  0.00    +0.000 C 
ATOM      8  C   UNL     1      35.991  51.202  48.658  0.00  0.00    +0.000 C 
ATOM      9  C   UNL     1      35.358  53.202  49.973  0.00  0.00    +0.000 A 
ATOM     10  C   UNL     1      34.612  53.676  46.322  0.00  0.00    +0.000 C 
ATOM     11  C   UNL     1      33.926  54.972  48.990  0.00  0.00    +0.000 C 
ATOM     12  C   UNL     1      35.799  51.403  51.182  0.00  0.00    +0.000 A 
ENDROOT
BRANCH  12  16
ATOM     13  F   UNL     1      35.908  49.742  52.872  0.00  0.00    +0.000 F 
ATOM     14  F   UNL     1      37.462  49.728  51.358  0.00  0.00    +0.000 F 
ATOM     15  F   UNL     1      35.433  49.090  50.853  0.00  0.00    +0.000 F 
ATOM     16  C   UNL     1      36.150  50.007  51.558  0.00  0.00    +0.000 C 
ENDBRANCH  12  16
BRANCH  10  17
ATOM     17  C   UNL     1      34.756  52.742  45.117  0.00  0.00    +0.000 C 
BRANCH  17  18
ATOM     18  C   UNL     1      35.324  53.393  43.840  0.00  0.00    +0.000 C 
BRANCH  18  19
ATOM     19  N   UNL     1      34.177  53.998  43.127  0.00  0.00    +0.000 NA
ATOM     20  H   UNL     1      34.452  54.888  42.711  0.00  0.00    +0.000 HD
ATOM     21  H   UNL     1      33.452  54.234  43.806  0.00  0.00    +0.000 HD
ENDBRANCH  18  19
BRANCH  18  22
ATOM     22  C   UNL     1      36.017  52.342  42.937  0.00  0.00    +0.000 C 
BRANCH  22  26
ATOM     23  F   UNL     1      38.727  52.163  43.922  0.00  0.00    +0.000 F 
ATOM     24  F   UNL     1      35.472  47.903  44.882  0.00  0.00    +0.000 F 
ATOM     25  F   UNL     1      38.025  47.945  45.869  0.00  0.00    +0.000 F 
ATOM     26  C   UNL     1      36.610  51.124  43.616  0.00  0.00    +0.000 A 
ATOM     27  C   UNL     1      37.919  51.114  44.121  0.00  0.00    +0.000 A 
ATOM     28  C   UNL     1      35.792  50.011  43.873  0.00  0.00    +0.000 A 
ATOM     29  C   UNL     1      36.278  48.942  44.624  0.00  0.00    +0.000 A 
ATOM     30  C   UNL     1      38.406  50.043  44.867  0.00  0.00    +0.000 A 
ATOM     31  C   UNL     1      37.574  48.962  45.123  0.00  0.00    +0.000 A 
ENDBRANCH  22  26
ENDBRANCH  18  22
ENDBRANCH  17  18
ENDBRANCH  10  17
TORSDOF 6
ENDMDL
MODEL 4
REMARK VINA RESULT:      -8.0      1.867      2.353
REMARK  Name = 10194630
REMARK  7 active torsions:
REMARK  status: ('A' for Active; 'I' for Inactive)
REMARK    1  A    between atoms: N_12  and  C_20
REMARK    2  A    between atoms: C_13  and  C_19
REMARK    3  A    between atoms: C_17  and  C_18
REMARK    4  A    between atoms: C_18  and  C_20
REMARK    5  A    between atoms: C_20  and  C_22
REMARK    6  A    between atoms: C_21  and  C_23
REMARK    7  A    between atoms: C_22  and  C_24
REMARK                            x       y       z     vdW  Elec       q    Type
REMARK                         _______ _______ _______ _____ _____    ______ ____
ROOT
ATOM      1  O   UNL     1      40.180  52.164  40.207  0.00  0.00    +0.000 OA
ATOM      2  N   UNL     1      38.257  51.633  39.028  0.00  0.00    +0.000 N 
ATOM      3  N   UNL     1      36.830  50.228  37.081  0.00  0.00    +0.000 N 
ATOM      4  N   UNL     1      38.415  50.179  35.594  0.00  0.00    +0.000 NA
ATOM      5  N   UNL     1      37.363  49.420  35.136  0.00  0.00    +0.000 NA
ATOM      6  C   UNL     1      38.927  51.536  37.691  0.00  0.00    +0.000 C 
ATOM      7  C   UNL     1      36.797  51.786  38.948  0.00  0.00    +0.000 C 
ATOM      8  C   UNL     1      36.146  50.576  38.301  0.00  0.00    +0.000 C 
ATOM      9  C   UNL     1      38.099  50.653  36.781  0.00  0.00    +0.000 A 
ATOM     10  C   UNL     1      38.963  51.986  40.185  0.00  0.00    +0.000 C 
ATOM     11  C   UNL     1      40.384  51.044  37.662  0.00  0.00    +0.000 C 
ATOM     12  C   UNL     1      36.401  49.443  36.042  0.00  0.00    +0.000 A 
ENDROOT
BRANCH  12  16
ATOM     13  F   UNL     1      34.939  48.015  34.839  0.00  0.00    +0.000 F 
ATOM     14  F   UNL     1      34.042  49.628  35.979  0.00  0.00    +0.000 F 
ATOM     15  F   UNL     1      34.895  47.898  37.009  0.00  0.00    +0.000 F 
ATOM     16  C   UNL     1      35.082  48.758  35.971  0.00  0.00    +0.000 C 
ENDBRANCH  12  16
BRANCH  10  17
ATOM     17  C   UNL     1      38.150  52.102  41.477  0.00  0.00    +0.000 C 
BRANCH  17  18
ATOM     18  C   UNL     1      37.973  50.790  42.267  0.00  0.00    +0.000 C 
BRANCH  18  19
ATOM     19  N   UNL     1      36.597  50.316  42.001  0.00  0.00    +0.000 NA
ATOM     20  H   UNL     1      36.446  49.408  42.441  0.00  0.00    +0.000 HD
ATOM     21  H   UNL     1      36.493  50.149  40.999  0.00  0.00    +0.000 HD
ENDBRANCH  18  19
BRANCH  18  22
ATOM     22  C   UNL     1      38.173  51.020  43.787  0.00  0.00    +0.000 C 
BRANCH  22  26
ATOM     23  F   UNL     1      39.092  48.345  44.378  0.00  0.00    +0.000 F 
ATOM     24  F   UNL     1      34.735  50.114  47.126  0.00  0.00    +0.000 F 
ATOM     25  F   UNL     1      35.811  47.656  47.669  0.00  0.00    +0.000 F 
ATOM     26  C   UNL     1      37.481  50.059  44.732  0.00  0.00    +0.000 A 
ATOM     27  C   UNL     1      38.005  48.789  45.021  0.00  0.00    +0.000 A 
ATOM     28  C   UNL     1      36.353  50.489  45.451  0.00  0.00    +0.000 A 
ATOM     29  C   UNL     1      35.793  49.673  46.431  0.00  0.00    +0.000 A 
ATOM     30  C   UNL     1      37.440  47.970  45.996  0.00  0.00    +0.000 A 
ATOM     31  C   UNL     1      36.337  48.425  46.705  0.00  0.00    +0.000 A 
ENDBRANCH  22  26
ENDBRANCH  18  22
ENDBRANCH  17  18
ENDBRANCH  10  17
TORSDOF 6
ENDMDL
MODEL 5
REMARK VINA RESULT:      -7.9     15.995     18.898
REMARK  Name = 10194630
REMARK  7 active torsions:
REMARK  status: ('A' for Active; 'I' for Inactive)
REMARK    1  A    between atoms: N_12  and  C_20
REMARK    2  A    between atoms: C_13  and  C_19
REMARK    3  A    between atoms: C_17  and  C_18
REMARK    4  A    between atoms: C_18  and  C_20
REMARK    5  A    between atoms: C_20  and  C_22
REMARK    6  A    between atoms: C_21  and  C_23
REMARK    7  A    between atoms: C_22  and  C_24
REMARK                            x       y       z     vdW  Elec       q    Type
REMARK                         _______ _______ _______ _____ _____    ______ ____
ROOT
ATOM      1  O   UNL     1      28.507  67.509  38.541  0.00  0.00    +0.000 OA
ATOM      2  N   UNL     1      30.425  67.391  39.836  0.00  0.00    +0.000 N 
ATOM      3  N   UNL     1      32.389  68.482  41.497  0.00  0.00    +0.000 N 
ATOM      4  N   UNL     1      32.520  70.409  40.498  0.00  0.00    +0.000 NA
ATOM      5  N   UNL     1      33.308  70.447  41.625  0.00  0.00    +0.000 NA
ATOM      6  C   UNL     1      30.991  68.701  39.380  0.00  0.00    +0.000 C 
ATOM      7  C   UNL     1      31.417  66.506  40.465  0.00  0.00    +0.000 C 
ATOM      8  C   UNL     1      31.985  67.119  41.734  0.00  0.00    +0.000 C 
ATOM      9  C   UNL     1      31.948  69.224  40.431  0.00  0.00    +0.000 A 
ATOM     10  C   UNL     1      29.220  66.888  39.328  0.00  0.00    +0.000 C 
ATOM     11  C   UNL     1      29.995  69.817  39.022  0.00  0.00    +0.000 C 
ATOM     12  C   UNL     1      33.224  69.278  42.237  0.00  0.00    +0.000 A 
ENDROOT
BRANCH  12  16
ATOM     13  F   UNL     1      34.621  69.887  44.054  0.00  0.00    +0.000 F 
ATOM     14  F   UNL     1      34.782  67.855  43.309  0.00  0.00    +0.000 F 
ATOM     15  F   UNL     1      33.021  68.470  44.450  0.00  0.00    +0.000 F 
ATOM     16  C   UNL     1      33.905  68.872  43.496  0.00  0.00    +0.000 C 
ENDBRANCH  12  16
BRANCH  10  17
ATOM     17  C   UNL     1      28.781  65.513  39.838  0.00  0.00    +0.000 C 
BRANCH  17  18
ATOM     18  C   UNL     1      28.482  64.467  38.746  0.00  0.00    +0.000 C 
BRANCH  18  19
ATOM     19  N   UNL     1      28.098  63.221  39.446  0.00  0.00    +0.000 NA
ATOM     20  H   UNL     1      28.928  62.752  39.810  0.00  0.00    +0.000 HD
ATOM     21  H   UNL     1      27.698  62.571  38.769  0.00  0.00    +0.000 HD
ENDBRANCH  18  19
BRANCH  18  22
ATOM     22  C   UNL     1      29.724  64.216  37.855  0.00  0.00    +0.000 C 
BRANCH  22  26
ATOM     23  F   UNL     1      27.650  64.011  35.853  0.00  0.00    +0.000 F 
ATOM     24  F   UNL     1      31.808  67.355  34.758  0.00  0.00    +0.000 F 
ATOM     25  F   UNL     1      29.697  67.154  33.024  0.00  0.00    +0.000 F 
ATOM     26  C   UNL     1      29.759  64.899  36.503  0.00  0.00    +0.000 A 
ATOM     27  C   UNL     1      28.696  64.805  35.591  0.00  0.00    +0.000 A 
ATOM     28  C   UNL     1      30.822  65.765  36.194  0.00  0.00    +0.000 A 
ATOM     29  C   UNL     1      30.798  66.513  35.019  0.00  0.00    +0.000 A 
ATOM     30  C   UNL     1      28.676  65.548  34.413  0.00  0.00    +0.000 A 
ATOM     31  C   UNL     1      29.729  66.410  34.139  0.00  0.00    +0.000 A 
ENDBRANCH  22  26
ENDBRANCH  18  22
ENDBRANCH  17  18
ENDBRANCH  10  17
TORSDOF 6
ENDMDL
MODEL 6
REMARK VINA RESULT:      -7.6     25.432     28.668
REMARK  Name = 10194630
REMARK  7 active torsions:
REMARK  status: ('A' for Active; 'I' for Inactive)
REMARK    1  A    between atoms: N_12  and  C_20
REMARK    2  A    between atoms: C_13  and  C_19
REMARK    3  A    between atoms: C_17  and  C_18
REMARK    4  A    between atoms: C_18  and  C_20
REMARK    5  A    between atoms: C_20  and  C_22
REMARK    6  A    between atoms: C_21  and  C_23
REMARK    7  A    between atoms: C_22  and  C_24
REMARK                            x       y       z     vdW  Elec       q    Type
REMARK                         _______ _______ _______ _____ _____    ______ ____
ROOT
ATOM      1  O   UNL     1      43.945  75.288  51.541  0.00  0.00    +0.000 OA
ATOM      2  N   UNL     1      45.542  76.278  50.186  0.00  0.00    +0.000 N 
ATOM      3  N   UNL     1      47.693  77.993  49.705  0.00  0.00    +0.000 N 
ATOM      4  N   UNL     1      47.053  79.580  51.046  0.00  0.00    +0.000 NA
ATOM      5  N   UNL     1      48.300  79.897  50.558  0.00  0.00    +0.000 NA
ATOM      6  C   UNL     1      45.413  77.646  50.782  0.00  0.00    +0.000 C 
ATOM      7  C   UNL     1      46.199  76.265  48.870  0.00  0.00    +0.000 C 
ATOM      8  C   UNL     1      47.632  76.761  48.960  0.00  0.00    +0.000 C 
ATOM      9  C   UNL     1      46.694  78.417  50.543  0.00  0.00    +0.000 A 
ATOM     10  C   UNL     1      44.743  75.207  50.610  0.00  0.00    +0.000 C 
ATOM     11  C   UNL     1      45.054  77.737  52.275  0.00  0.00    +0.000 C 
ATOM     12  C   UNL     1      48.693  78.930  49.748  0.00  0.00    +0.000 A 
ENDROOT
BRANCH  12  16
ATOM     13  F   UNL     1      49.829  79.110  47.674  0.00  0.00    +0.000 F 
ATOM     14  F   UNL     1      50.549  77.622  49.079  0.00  0.00    +0.000 F 
ATOM     15  F   UNL     1      50.893  79.747  49.459  0.00  0.00    +0.000 F 
ATOM     16  C   UNL     1      49.978  78.849  49.002  0.00  0.00    +0.000 C 
ENDBRANCH  12  16
BRANCH  10  17
ATOM     17  C   UNL     1      44.939  73.875  49.881  0.00  0.00    +0.000 C 
BRANCH  17  18
ATOM     18  C   UNL     1      45.866  72.865  50.586  0.00  0.00    +0.000 C 
BRANCH  18  19
ATOM     19  N   UNL     1      45.993  73.314  51.990  0.00  0.00    +0.000 NA
ATOM     20  H   UNL     1      46.772  72.836  52.443  0.00  0.00    +0.000 HD
ATOM     21  H   UNL     1      45.162  73.023  52.507  0.00  0.00    +0.000 HD
ENDBRANCH  18  19
BRANCH  18  22
ATOM     22  C   UNL     1      47.261  72.820  49.912  0.00  0.00    +0.000 C 
BRANCH  22  26
ATOM     23  F   UNL     1      46.012  71.106  47.951  0.00  0.00    +0.000 F 
ATOM     24  F   UNL     1      50.761  69.426  50.022  0.00  0.00    +0.000 F 
ATOM     25  F   UNL     1      49.520  67.983  48.054  0.00  0.00    +0.000 F 
ATOM     26  C   UNL     1      47.787  71.463  49.492  0.00  0.00    +0.000 A 
ATOM     27  C   UNL     1      47.166  70.697  48.494  0.00  0.00    +0.000 A 
ATOM     28  C   UNL     1      49.009  71.005  50.014  0.00  0.00    +0.000 A 
ATOM     29  C   UNL     1      49.581  69.830  49.531  0.00  0.00    +0.000 A 
ATOM     30  C   UNL     1      47.735  69.519  48.017  0.00  0.00    +0.000 A 
ATOM     31  C   UNL     1      48.951  69.096  48.535  0.00  0.00    +0.000 A 
ENDBRANCH  22  26
ENDBRANCH  18  22
ENDBRANCH  17  18
ENDBRANCH  10  17
TORSDOF 6
ENDMDL
MODEL 7
REMARK VINA RESULT:      -7.6     13.916     15.689
REMARK  Name = 10194630
REMARK  7 active torsions:
REMARK  status: ('A' for Active; 'I' for Inactive)
REMARK    1  A    between atoms: N_12  and  C_20
REMARK    2  A    between atoms: C_13  and  C_19
REMARK    3  A    between atoms: C_17  and  C_18
REMARK    4  A    between atoms: C_18  and  C_20
REMARK    5  A    between atoms: C_20  and  C_22
REMARK    6  A    between atoms: C_21  and  C_23
REMARK    7  A    between atoms: C_22  and  C_24
REMARK                            x       y       z     vdW  Elec       q    Type
REMARK                         _______ _______ _______ _____ _____    ______ ____
ROOT
ATOM      1  O   UNL     1      49.061  51.484  39.080  0.00  0.00    +0.000 OA
ATOM      2  N   UNL     1      50.374  49.934  37.967  0.00  0.00    +0.000 N 
ATOM      3  N   UNL     1      51.525  48.820  35.678  0.00  0.00    +0.000 N 
ATOM      4  N   UNL     1      49.830  49.151  34.358  0.00  0.00    +0.000 NA
ATOM      5  N   UNL     1      50.875  48.660  33.610  0.00  0.00    +0.000 NA
ATOM      6  C   UNL     1      49.446  49.764  36.803  0.00  0.00    +0.000 C 
ATOM      7  C   UNL     1      51.355  48.847  38.103  0.00  0.00    +0.000 C 
ATOM      8  C   UNL     1      52.283  48.780  36.902  0.00  0.00    +0.000 C 
ATOM      9  C   UNL     1      50.230  49.266  35.607  0.00  0.00    +0.000 A 
ATOM     10  C   UNL     1      50.065  50.774  39.044  0.00  0.00    +0.000 C 
ATOM     11  C   UNL     1      48.617  50.986  36.374  0.00  0.00    +0.000 C 
ATOM     12  C   UNL     1      51.909  48.465  34.411  0.00  0.00    +0.000 A 
ENDROOT
BRANCH  12  16
ATOM     13  F   UNL     1      54.240  48.865  34.236  0.00  0.00    +0.000 F 
ATOM     14  F   UNL     1      53.329  47.603  32.725  0.00  0.00    +0.000 F 
ATOM     15  F   UNL     1      53.604  46.854  34.760  0.00  0.00    +0.000 F 
ATOM     16  C   UNL     1      53.253  47.950  34.033  0.00  0.00    +0.000 C 
ENDBRANCH  12  16
BRANCH  10  17
ATOM     17  C   UNL     1      51.075  50.816  40.194  0.00  0.00    +0.000 C 
BRANCH  17  18
ATOM     18  C   UNL     1      50.667  50.041  41.462  0.00  0.00    +0.000 C 
BRANCH  18  19
ATOM     19  N   UNL     1      49.301  49.525  41.222  0.00  0.00    +0.000 NA
ATOM     20  H   UNL     1      48.781  50.169  40.625  0.00  0.00    +0.000 HD
ATOM     21  H   UNL     1      48.792  49.512  42.107  0.00  0.00    +0.000 HD
ENDBRANCH  18  19
BRANCH  18  22
ATOM     22  C   UNL     1      50.677  50.960  42.709  0.00  0.00    +0.000 C 
BRANCH  22  26
ATOM     23  F   UNL     1      50.269  49.781  45.314  0.00  0.00    +0.000 F 
ATOM     24  F   UNL     1      55.401  50.955  43.920  0.00  0.00    +0.000 F 
ATOM     25  F   UNL     1      54.862  49.708  46.298  0.00  0.00    +0.000 F 
ATOM     26  C   UNL     1      51.770  50.731  43.733  0.00  0.00    +0.000 A 
ATOM     27  C   UNL     1      51.520  50.104  44.964  0.00  0.00    +0.000 A 
ATOM     28  C   UNL     1      53.102  51.028  43.399  0.00  0.00    +0.000 A 
ATOM     29  C   UNL     1      54.135  50.689  44.270  0.00  0.00    +0.000 A 
ATOM     30  C   UNL     1      52.553  49.771  45.837  0.00  0.00    +0.000 A 
ATOM     31  C   UNL     1      53.862  50.059  45.477  0.00  0.00    +0.000 A 
ENDBRANCH  22  26
ENDBRANCH  18  22
ENDBRANCH  17  18
ENDBRANCH  10  17
TORSDOF 6
ENDMDL
MODEL 8
REMARK VINA RESULT:      -7.6     25.483     27.573
REMARK  Name = 10194630
REMARK  7 active torsions:
REMARK  status: ('A' for Active; 'I' for Inactive)
REMARK    1  A    between atoms: N_12  and  C_20
REMARK    2  A    between atoms: C_13  and  C_19
REMARK    3  A    between atoms: C_17  and  C_18
REMARK    4  A    between atoms: C_18  and  C_20
REMARK    5  A    between atoms: C_20  and  C_22
REMARK    6  A    between atoms: C_21  and  C_23
REMARK    7  A    between atoms: C_22  and  C_24
REMARK                            x       y       z     vdW  Elec       q    Type
REMARK                         _______ _______ _______ _____ _____    ______ ____
ROOT
ATOM      1  O   UNL     1      54.429  71.301  43.107  0.00  0.00    +0.000 OA
ATOM      2  N   UNL     1      55.958  71.183  41.370  0.00  0.00    +0.000 N 
ATOM      3  N   UNL     1      58.540  70.958  40.327  0.00  0.00    +0.000 N 
ATOM      4  N   UNL     1      59.530  72.154  41.849  0.00  0.00    +0.000 NA
ATOM      5  N   UNL     1      60.490  71.616  41.023  0.00  0.00    +0.000 NA
ATOM      6  C   UNL     1      56.988  72.053  42.022  0.00  0.00    +0.000 C 
ATOM      7  C   UNL     1      56.144  71.033  39.919  0.00  0.00    +0.000 C 
ATOM      8  C   UNL     1      57.460  70.348  39.594  0.00  0.00    +0.000 C 
ATOM      9  C   UNL     1      58.350  71.739  41.438  0.00  0.00    +0.000 A 
ATOM     10  C   UNL     1      54.725  70.914  41.977  0.00  0.00    +0.000 C 
ATOM     11  C   UNL     1      57.088  72.006  43.556  0.00  0.00    +0.000 C 
ATOM     12  C   UNL     1      59.890  70.883  40.101  0.00  0.00    +0.000 A 
ENDROOT
BRANCH  12  16
ATOM     13  F   UNL     1      59.990  70.381  37.785  0.00  0.00    +0.000 F 
ATOM     14  F   UNL     1      60.428  68.772  39.175  0.00  0.00    +0.000 F 
ATOM     15  F   UNL     1      61.862  70.397  38.890  0.00  0.00    +0.000 F 
ATOM     16  C   UNL     1      60.536  70.113  39.004  0.00  0.00    +0.000 C 
ENDBRANCH  12  16
BRANCH  10  17
ATOM     17  C   UNL     1      53.741  70.053  41.180  0.00  0.00    +0.000 C 
BRANCH  17  18
ATOM     18  C   UNL     1      52.349  70.676  40.954  0.00  0.00    +0.000 C 
BRANCH  18  19
ATOM     19  N   UNL     1      51.762  70.899  42.293  0.00  0.00    +0.000 NA
ATOM     20  H   UNL     1      50.743  70.865  42.241  0.00  0.00    +0.000 HD
ATOM     21  H   UNL     1      51.982  71.849  42.598  0.00  0.00    +0.000 HD
ENDBRANCH  18  19
BRANCH  18  22
ATOM     22  C   UNL     1      51.441  69.734  40.124  0.00  0.00    +0.000 C 
BRANCH  22  26
ATOM     23  F   UNL     1      49.167  68.299  39.068  0.00  0.00    +0.000 F 
ATOM     24  F   UNL     1      49.160  73.713  38.465  0.00  0.00    +0.000 F 
ATOM     25  F   UNL     1      47.014  72.224  37.641  0.00  0.00    +0.000 F 
ATOM     26  C   UNL     1      50.306  70.369  39.347  0.00  0.00    +0.000 A 
ATOM     27  C   UNL     1      49.199  69.628  38.904  0.00  0.00    +0.000 A 
ATOM     28  C   UNL     1      50.281  71.763  39.175  0.00  0.00    +0.000 A 
ATOM     29  C   UNL     1      49.175  72.379  38.593  0.00  0.00    +0.000 A 
ATOM     30  C   UNL     1      48.096  70.243  38.316  0.00  0.00    +0.000 A 
ATOM     31  C   UNL     1      48.088  71.623  38.173  0.00  0.00    +0.000 A 
ENDBRANCH  22  26
ENDBRANCH  18  22
ENDBRANCH  17  18
ENDBRANCH  10  17
TORSDOF 6
ENDMDL
MODEL 9
REMARK VINA RESULT:      -6.8     26.092     29.363
REMARK  Name = 10194630
REMARK  7 active torsions:
REMARK  status: ('A' for Active; 'I' for Inactive)
REMARK    1  A    between atoms: N_12  and  C_20
REMARK    2  A    between atoms: C_13  and  C_19
REMARK    3  A    between atoms: C_17  and  C_18
REMARK    4  A    between atoms: C_18  and  C_20
REMARK    5  A    between atoms: C_20  and  C_22
REMARK    6  A    between atoms: C_21  and  C_23
REMARK    7  A    between atoms: C_22  and  C_24
REMARK                            x       y       z     vdW  Elec       q    Type
REMARK                         _______ _______ _______ _____ _____    ______ ____
ROOT
ATOM      1  O   UNL     1      43.902  77.157  53.323  0.00  0.00    +0.000 OA
ATOM      2  N   UNL     1      45.407  77.425  51.582  0.00  0.00    +0.000 N 
ATOM      3  N   UNL     1      47.709  78.490  50.411  0.00  0.00    +0.000 N 
ATOM      4  N   UNL     1      47.559  80.462  51.313  0.00  0.00    +0.000 NA
ATOM      5  N   UNL     1      48.748  80.386  50.626  0.00  0.00    +0.000 NA
ATOM      6  C   UNL     1      45.601  78.897  51.780  0.00  0.00    +0.000 C 
ATOM      7  C   UNL     1      45.838  76.944  50.260  0.00  0.00    +0.000 C 
ATOM      8  C   UNL     1      47.329  77.147  50.053  0.00  0.00    +0.000 C 
ATOM      9  C   UNL     1      46.938  79.307  51.199  0.00  0.00    +0.000 A 
ATOM     10  C   UNL     1      44.520  76.682  52.372  0.00  0.00    +0.000 C 
ATOM     11  C   UNL     1      45.502  79.437  53.216  0.00  0.00    +0.000 C 
ATOM     12  C   UNL     1      48.844  79.185  50.083  0.00  0.00    +0.000 A 
ENDROOT
BRANCH  12  16
ATOM     13  F   UNL     1      51.082  79.431  49.339  0.00  0.00    +0.000 F 
ATOM     14  F   UNL     1      49.653  78.592  47.939  0.00  0.00    +0.000 F 
ATOM     15  F   UNL     1      50.343  77.410  49.643  0.00  0.00    +0.000 F 
ATOM     16  C   UNL     1      49.964  78.659  49.257  0.00  0.00    +0.000 C 
ENDBRANCH  12  16
BRANCH  10  17
ATOM     17  C   UNL     1      44.375  75.196  52.030  0.00  0.00    +0.000 C 
BRANCH  17  18
ATOM     18  C   UNL     1      43.094  74.816  51.262  0.00  0.00    +0.000 C 
BRANCH  18  19
ATOM     19  N   UNL     1      42.123  74.335  52.269  0.00  0.00    +0.000 NA
ATOM     20  H   UNL     1      42.601  74.119  53.144  0.00  0.00    +0.000 HD
ATOM     21  H   UNL     1      41.731  73.447  51.952  0.00  0.00    +0.000 HD
ENDBRANCH  18  19
BRANCH  18  22
ATOM     22  C   UNL     1      43.375  73.705  50.219  0.00  0.00    +0.000 C 
BRANCH  22  26
ATOM     23  F   UNL     1      43.748  71.540  52.096  0.00  0.00    +0.000 F 
ATOM     24  F   UNL     1      47.871  72.586  48.694  0.00  0.00    +0.000 F 
ATOM     25  F   UNL     1      48.014  70.481  50.439  0.00  0.00    +0.000 F 
ATOM     26  C   UNL     1      44.656  72.910  50.377  0.00  0.00    +0.000 A 
ATOM     27  C   UNL     1      44.761  71.833  51.271  0.00  0.00    +0.000 A 
ATOM     28  C   UNL     1      45.735  73.162  49.513  0.00  0.00    +0.000 A 
ATOM     29  C   UNL     1      46.864  72.346  49.546  0.00  0.00    +0.000 A 
ATOM     30  C   UNL     1      45.892  71.022  51.307  0.00  0.00    +0.000 A 
ATOM     31  C   UNL     1      46.938  71.280  50.432  0.00  0.00    +0.000 A 
ENDBRANCH  22  26
ENDBRANCH  18  22
ENDBRANCH  17  18
ENDBRANCH  10  17
TORSDOF 6
ENDMDL
