MODEL 1
REMARK VINA RESULT:      -7.7      0.000      0.000
REMARK  Name = 20628252
REMARK  5 active torsions:
REMARK  status: ('A' for Active; 'I' for Inactive)
REMARK    1  A    between atoms: N_5  and  C_11
REMARK    2  A    between atoms: C_11  and  C_12
REMARK    3  A    between atoms: C_11  and  C_15
REMARK    4  A    between atoms: C_12  and  C_14
REMARK    5  A    between atoms: C_15  and  C_17
REMARK                            x       y       z     vdW  Elec       q    Type
REMARK                         _______ _______ _______ _____ _____    ______ ____
ROOT
ATOM      1  C   UNL     1      46.380  74.798  49.524  0.00  0.00    +0.000 C 
ENDROOT
BRANCH   1   2
ATOM      2  N   UNL     1      44.916  74.662  49.333  0.00  0.00    +0.000 NA
ATOM      3  H   UNL     1      44.675  73.687  49.160  0.00  0.00    +0.000 HD
ATOM      4  H   UNL     1      44.441  74.916  50.202  0.00  0.00    +0.000 HD
ENDBRANCH   1   2
BRANCH   1   5
ATOM      5  C   UNL     1      46.996  73.437  49.135  0.00  0.00    +0.000 C 
BRANCH   5  15
ATOM      6  O   UNL     1      45.760  72.223  50.815  0.00  0.00    +0.000 OA
ATOM      7  N   UNL     1      47.681  71.229  50.046  0.00  0.00    +0.000 N 
ATOM      8  N   UNL     1      49.933  69.905  50.951  0.00  0.00    +0.000 N 
ATOM      9  N   UNL     1      51.214  70.432  49.268  0.00  0.00    +0.000 NA
ATOM     10  N   UNL     1      51.975  69.774  50.213  0.00  0.00    +0.000 NA
ATOM     11  C   UNL     1      47.497  70.044  50.898  0.00  0.00    +0.000 C 
ATOM     12  C   UNL     1      48.797  71.144  49.090  0.00  0.00    +0.000 C 
ATOM     13  C   UNL     1      48.740  69.803  51.759  0.00  0.00    +0.000 C 
ATOM     14  C   UNL     1      49.987  70.519  49.729  0.00  0.00    +0.000 A 
ATOM     15  C   UNL     1      46.733  72.257  50.066  0.00  0.00    +0.000 C 
ATOM     16  C   UNL     1      51.186  69.471  51.223  0.00  0.00    +0.000 A 
ENDBRANCH   5  15
ENDBRANCH   1   5
BRANCH   1  17
ATOM     17  C   UNL     1      46.913  75.979  48.673  0.00  0.00    +0.000 C 
BRANCH  17  19
ATOM     18  F   UNL     1      48.200  78.211  47.402  0.00  0.00    +0.000 F 
ATOM     19  C   UNL     1      48.042  76.784  49.289  0.00  0.00    +0.000 A 
ATOM     20  C   UNL     1      48.621  77.870  48.626  0.00  0.00    +0.000 A 
ATOM     21  C   UNL     1      48.517  76.465  50.572  0.00  0.00    +0.000 A 
ATOM     22  C   UNL     1      49.638  78.625  49.215  0.00  0.00    +0.000 A 
ATOM     23  C   UNL     1      49.534  77.218  51.168  0.00  0.00    +0.000 A 
ATOM     24  C   UNL     1      50.094  78.299  50.491  0.00  0.00    +0.000 A 
ENDBRANCH  17  19
ENDBRANCH   1  17
TORSDOF 5
ENDMDL
MODEL 2
REMARK VINA RESULT:      -7.3      3.649      5.406
REMARK  Name = 20628252
REMARK  5 active torsions:
REMARK  status: ('A' for Active; 'I' for Inactive)
REMARK    1  A    between atoms: N_5  and  C_11
REMARK    2  A    between atoms: C_11  and  C_12
REMARK    3  A    between atoms: C_11  and  C_15
REMARK    4  A    between atoms: C_12  and  C_14
REMARK    5  A    between atoms: C_15  and  C_17
REMARK                            x       y       z     vdW  Elec       q    Type
REMARK                         _______ _______ _______ _____ _____    ______ ____
ROOT
ATOM      1  C   UNL     1      46.827  79.477  52.245  0.00  0.00    +0.000 C 
ENDROOT
BRANCH   1   2
ATOM      2  N   UNL     1      46.610  80.137  53.555  0.00  0.00    +0.000 NA
ATOM      3  H   UNL     1      45.716  80.625  53.556  0.00  0.00    +0.000 HD
ATOM      4  H   UNL     1      46.537  79.422  54.281  0.00  0.00    +0.000 HD
ENDBRANCH   1   2
BRANCH   1   5
ATOM      5  C   UNL     1      45.438  79.011  51.759  0.00  0.00    +0.000 C 
BRANCH   5  15
ATOM      6  O   UNL     1      44.391  77.788  53.557  0.00  0.00    +0.000 OA
ATOM      7  N   UNL     1      44.882  76.592  51.661  0.00  0.00    +0.000 N 
ATOM      8  N   UNL     1      45.980  74.185  50.854  0.00  0.00    +0.000 N 
ATOM      9  N   UNL     1      46.636  74.866  48.891  0.00  0.00    +0.000 NA
ATOM     10  N   UNL     1      47.097  73.580  49.090  0.00  0.00    +0.000 NA
ATOM     11  C   UNL     1      44.315  75.350  52.209  0.00  0.00    +0.000 C 
ATOM     12  C   UNL     1      45.294  76.521  50.249  0.00  0.00    +0.000 C 
ATOM     13  C   UNL     1      45.346  74.219  52.153  0.00  0.00    +0.000 C 
ATOM     14  C   UNL     1      45.976  75.228  49.968  0.00  0.00    +0.000 A 
ATOM     15  C   UNL     1      44.846  77.768  52.416  0.00  0.00    +0.000 C 
ATOM     16  C   UNL     1      46.698  73.191  50.282  0.00  0.00    +0.000 A 
ENDBRANCH   5  15
ENDBRANCH   1   5
BRANCH   1  17
ATOM     17  C   UNL     1      47.520  80.462  51.270  0.00  0.00    +0.000 C 
BRANCH  17  19
ATOM     18  F   UNL     1      50.358  80.416  51.718  0.00  0.00    +0.000 F 
ATOM     19  C   UNL     1      48.531  79.851  50.317  0.00  0.00    +0.000 A 
ATOM     20  C   UNL     1      49.901  79.847  50.596  0.00  0.00    +0.000 A 
ATOM     21  C   UNL     1      48.099  79.240  49.127  0.00  0.00    +0.000 A 
ATOM     22  C   UNL     1      50.820  79.253  49.729  0.00  0.00    +0.000 A 
ATOM     23  C   UNL     1      49.014  78.642  48.255  0.00  0.00    +0.000 A 
ATOM     24  C   UNL     1      50.375  78.646  48.555  0.00  0.00    +0.000 A 
ENDBRANCH  17  19
ENDBRANCH   1  17
TORSDOF 5
ENDMDL
MODEL 3
REMARK VINA RESULT:      -7.3      1.817      2.328
REMARK  Name = 20628252
REMARK  5 active torsions:
REMARK  status: ('A' for Active; 'I' for Inactive)
REMARK    1  A    between atoms: N_5  and  C_11
REMARK    2  A    between atoms: C_11  and  C_12
REMARK    3  A    between atoms: C_11  and  C_15
REMARK    4  A    between atoms: C_12  and  C_14
REMARK    5  A    between atoms: C_15  and  C_17
REMARK                            x       y       z     vdW  Elec       q    Type
REMARK                         _______ _______ _______ _____ _____    ______ ____
ROOT
ATOM      1  C   UNL     1      46.839  76.543  49.416  0.00  0.00    +0.000 C 
ENDROOT
BRANCH   1   2
ATOM      2  N   UNL     1      45.933  75.935  48.413  0.00  0.00    +0.000 NA
ATOM      3  H   UNL     1      45.211  76.602  48.143  0.00  0.00    +0.000 HD
ATOM      4  H   UNL     1      46.462  75.738  47.560  0.00  0.00    +0.000 HD
ENDBRANCH   1   2
BRANCH   1   5
ATOM      5  C   UNL     1      47.504  75.369  50.167  0.00  0.00    +0.000 C 
BRANCH   5  15
ATOM      6  O   UNL     1      45.818  74.536  51.680  0.00  0.00    +0.000 OA
ATOM      7  N   UNL     1      46.688  73.022  50.190  0.00  0.00    +0.000 N 
ATOM      8  N   UNL     1      47.648  70.432  50.060  0.00  0.00    +0.000 N 
ATOM      9  N   UNL     1      48.942  70.742  48.334  0.00  0.00    +0.000 NA
ATOM     10  N   UNL     1      49.149  69.466  48.819  0.00  0.00    +0.000 NA
ATOM     11  C   UNL     1      45.826  71.935  50.677  0.00  0.00    +0.000 C 
ATOM     12  C   UNL     1      47.488  72.698  48.997  0.00  0.00    +0.000 C 
ATOM     13  C   UNL     1      46.668  70.722  51.081  0.00  0.00    +0.000 C 
ATOM     14  C   UNL     1      48.046  71.322  49.100  0.00  0.00    +0.000 A 
ATOM     15  C   UNL     1      46.585  74.299  50.750  0.00  0.00    +0.000 C 
ATOM     16  C   UNL     1      48.366  69.302  49.864  0.00  0.00    +0.000 A 
ENDBRANCH   5  15
ENDBRANCH   1   5
BRANCH   1  17
ATOM     17  C   UNL     1      47.856  77.474  48.709  0.00  0.00    +0.000 C 
BRANCH  17  19
ATOM     18  F   UNL     1      50.622  78.175  48.372  0.00  0.00    +0.000 F 
ATOM     19  C   UNL     1      48.615  78.432  49.609  0.00  0.00    +0.000 A 
ATOM     20  C   UNL     1      49.959  78.745  49.387  0.00  0.00    +0.000 A 
ATOM     21  C   UNL     1      47.962  79.056  50.685  0.00  0.00    +0.000 A 
ATOM     22  C   UNL     1      50.641  79.653  50.201  0.00  0.00    +0.000 A 
ATOM     23  C   UNL     1      48.638  79.966  51.504  0.00  0.00    +0.000 A 
ATOM     24  C   UNL     1      49.977  80.267  51.262  0.00  0.00    +0.000 A 
ENDBRANCH  17  19
ENDBRANCH   1  17
TORSDOF 5
ENDMDL
MODEL 4
REMARK VINA RESULT:      -7.3      5.179      8.444
REMARK  Name = 20628252
REMARK  5 active torsions:
REMARK  status: ('A' for Active; 'I' for Inactive)
REMARK    1  A    between atoms: N_5  and  C_11
REMARK    2  A    between atoms: C_11  and  C_12
REMARK    3  A    between atoms: C_11  and  C_15
REMARK    4  A    between atoms: C_12  and  C_14
REMARK    5  A    between atoms: C_15  and  C_17
REMARK                            x       y       z     vdW  Elec       q    Type
REMARK                         _______ _______ _______ _____ _____    ______ ____
ROOT
ATOM      1  C   UNL     1      46.450  77.039  50.079  0.00  0.00    +0.000 C 
ENDROOT
BRANCH   1   2
ATOM      2  N   UNL     1      46.289  76.408  51.410  0.00  0.00    +0.000 NA
ATOM      3  H   UNL     1      46.045  75.425  51.304  0.00  0.00    +0.000 HD
ATOM      4  H   UNL     1      47.188  76.420  51.897  0.00  0.00    +0.000 HD
ENDBRANCH   1   2
BRANCH   1   5
ATOM      5  C   UNL     1      46.310  78.561  50.300  0.00  0.00    +0.000 C 
BRANCH   5  15
ATOM      6  O   UNL     1      46.955  78.903  52.600  0.00  0.00    +0.000 OA
ATOM      7  N   UNL     1      44.857  79.625  52.011  0.00  0.00    +0.000 N 
ATOM      8  N   UNL     1      42.239  79.596  52.899  0.00  0.00    +0.000 N 
ATOM      9  N   UNL     1      41.316  79.786  50.934  0.00  0.00    +0.000 NA
ATOM     10  N   UNL     1      40.323  79.588  51.872  0.00  0.00    +0.000 NA
ATOM     11  C   UNL     1      44.574  80.137  53.361  0.00  0.00    +0.000 C 
ATOM     12  C   UNL     1      43.837  79.940  50.997  0.00  0.00    +0.000 C 
ATOM     13  C   UNL     1      43.276  79.532  53.903  0.00  0.00    +0.000 C 
ATOM     14  C   UNL     1      42.470  79.775  51.563  0.00  0.00    +0.000 A 
ATOM     15  C   UNL     1      46.097  79.044  51.732  0.00  0.00    +0.000 C 
ATOM     16  C   UNL     1      40.900  79.467  53.049  0.00  0.00    +0.000 A 
ENDBRANCH   5  15
ENDBRANCH   1   5
BRANCH   1  17
ATOM     17  C   UNL     1      47.815  76.631  49.467  0.00  0.00    +0.000 C 
BRANCH  17  19
ATOM     18  F   UNL     1      49.399  77.071  51.824  0.00  0.00    +0.000 F 
ATOM     19  C   UNL     1      48.925  77.661  49.576  0.00  0.00    +0.000 A 
ATOM     20  C   UNL     1      49.671  77.820  50.748  0.00  0.00    +0.000 A 
ATOM     21  C   UNL     1      49.249  78.468  48.473  0.00  0.00    +0.000 A 
ATOM     22  C   UNL     1      50.712  78.747  50.828  0.00  0.00    +0.000 A 
ATOM     23  C   UNL     1      50.291  79.398  48.547  0.00  0.00    +0.000 A 
ATOM     24  C   UNL     1      51.025  79.538  49.723  0.00  0.00    +0.000 A 
ENDBRANCH  17  19
ENDBRANCH   1  17
TORSDOF 5
ENDMDL
MODEL 5
REMARK VINA RESULT:      -7.1     21.458     23.457
REMARK  Name = 20628252
REMARK  5 active torsions:
REMARK  status: ('A' for Active; 'I' for Inactive)
REMARK    1  A    between atoms: N_5  and  C_11
REMARK    2  A    between atoms: C_11  and  C_12
REMARK    3  A    between atoms: C_11  and  C_15
REMARK    4  A    between atoms: C_12  and  C_14
REMARK    5  A    between atoms: C_15  and  C_17
REMARK                            x       y       z     vdW  Elec       q    Type
REMARK                         _______ _______ _______ _____ _____    ______ ____
ROOT
ATOM      1  C   UNL     1      30.192  63.805  37.985  0.00  0.00    +0.000 C 
ENDROOT
BRANCH   1   2
ATOM      2  N   UNL     1      31.654  63.995  38.144  0.00  0.00    +0.000 NA
ATOM      3  H   UNL     1      32.156  63.221  37.712  0.00  0.00    +0.000 HD
ATOM      4  H   UNL     1      31.940  64.832  37.633  0.00  0.00    +0.000 HD
ENDBRANCH   1   2
BRANCH   1   5
ATOM      5  C   UNL     1      29.522  65.038  38.629  0.00  0.00    +0.000 C 
BRANCH   5  15
ATOM      6  O   UNL     1      31.041  66.841  39.147  0.00  0.00    +0.000 OA
ATOM      7  N   UNL     1      30.392  65.518  40.906  0.00  0.00    +0.000 N 
ATOM      8  N   UNL     1      31.421  64.208  43.113  0.00  0.00    +0.000 N 
ATOM      9  N   UNL     1      29.875  62.677  43.227  0.00  0.00    +0.000 NA
ATOM     10  N   UNL     1      30.851  62.390  44.160  0.00  0.00    +0.000 NA
ATOM     11  C   UNL     1      31.173  66.299  41.877  0.00  0.00    +0.000 C 
ATOM     12  C   UNL     1      29.528  64.479  41.491  0.00  0.00    +0.000 C 
ATOM     13  C   UNL     1      32.123  65.388  42.660  0.00  0.00    +0.000 C 
ATOM     14  C   UNL     1      30.236  63.768  42.589  0.00  0.00    +0.000 A 
ATOM     15  C   UNL     1      30.377  65.894  39.560  0.00  0.00    +0.000 C 
ATOM     16  C   UNL     1      31.778  63.320  44.070  0.00  0.00    +0.000 A 
ENDBRANCH   5  15
ENDBRANCH   1   5
BRANCH   1  17
ATOM     17  C   UNL     1      29.847  63.633  36.484  0.00  0.00    +0.000 C 
BRANCH  17  19
ATOM     18  F   UNL     1      31.417  65.869  35.595  0.00  0.00    +0.000 F 
ATOM     19  C   UNL     1      29.281  64.858  35.789  0.00  0.00    +0.000 A 
ATOM     20  C   UNL     1      30.098  65.910  35.367  0.00  0.00    +0.000 A 
ATOM     21  C   UNL     1      27.903  64.946  35.525  0.00  0.00    +0.000 A 
ATOM     22  C   UNL     1      29.573  67.019  34.699  0.00  0.00    +0.000 A 
ATOM     23  C   UNL     1      27.371  66.053  34.856  0.00  0.00    +0.000 A 
ATOM     24  C   UNL     1      28.205  67.089  34.441  0.00  0.00    +0.000 A 
ENDBRANCH  17  19
ENDBRANCH   1  17
TORSDOF 5
ENDMDL
MODEL 6
REMARK VINA RESULT:      -6.8     23.305     24.799
REMARK  Name = 20628252
REMARK  5 active torsions:
REMARK  status: ('A' for Active; 'I' for Inactive)
REMARK    1  A    between atoms: N_5  and  C_11
REMARK    2  A    between atoms: C_11  and  C_12
REMARK    3  A    between atoms: C_11  and  C_15
REMARK    4  A    between atoms: C_12  and  C_14
REMARK    5  A    between atoms: C_15  and  C_17
REMARK                            x       y       z     vdW  Elec       q    Type
REMARK                         _______ _______ _______ _____ _____    ______ ____
ROOT
ATOM      1  C   UNL     1      28.724  64.028  38.533  0.00  0.00    +0.000 C 
ENDROOT
BRANCH   1   2
ATOM      2  N   UNL     1      27.864  62.905  38.978  0.00  0.00    +0.000 NA
ATOM      3  H   UNL     1      27.096  63.258  39.548  0.00  0.00    +0.000 HD
ATOM      4  H   UNL     1      27.428  62.473  38.161  0.00  0.00    +0.000 HD
ENDBRANCH   1   2
BRANCH   1   5
ATOM      5  C   UNL     1      29.677  64.336  39.707  0.00  0.00    +0.000 C 
BRANCH   5  15
ATOM      6  O   UNL     1      29.042  63.179  41.728  0.00  0.00    +0.000 OA
ATOM      7  N   UNL     1      28.616  65.434  41.668  0.00  0.00    +0.000 N 
ATOM      8  N   UNL     1      26.640  67.271  42.269  0.00  0.00    +0.000 N 
ATOM      9  N   UNL     1      27.275  68.785  40.837  0.00  0.00    +0.000 NA
ATOM     10  N   UNL     1      26.089  69.193  41.414  0.00  0.00    +0.000 NA
ATOM     11  C   UNL     1      28.064  65.441  43.031  0.00  0.00    +0.000 C 
ATOM     12  C   UNL     1      28.771  66.761  41.050  0.00  0.00    +0.000 C 
ATOM     13  C   UNL     1      26.658  66.047  43.037  0.00  0.00    +0.000 C 
ATOM     14  C   UNL     1      27.591  67.617  41.349  0.00  0.00    +0.000 A 
ATOM     15  C   UNL     1      29.103  64.244  41.118  0.00  0.00    +0.000 C 
ATOM     16  C   UNL     1      25.718  68.263  42.268  0.00  0.00    +0.000 A 
ENDBRANCH   5  15
ENDBRANCH   1   5
BRANCH   1  17
ATOM     17  C   UNL     1      29.464  63.636  37.228  0.00  0.00    +0.000 C 
BRANCH  17  19
ATOM     18  F   UNL     1      27.384  64.337  35.373  0.00  0.00    +0.000 F 
ATOM     19  C   UNL     1      29.580  64.726  36.179  0.00  0.00    +0.000 A 
ATOM     20  C   UNL     1      28.528  65.031  35.311  0.00  0.00    +0.000 A 
ATOM     21  C   UNL     1      30.760  65.483  36.077  0.00  0.00    +0.000 A 
ATOM     22  C   UNL     1      28.633  66.059  34.371  0.00  0.00    +0.000 A 
ATOM     23  C   UNL     1      30.871  66.514  35.138  0.00  0.00    +0.000 A 
ATOM     24  C   UNL     1      29.808  66.804  34.285  0.00  0.00    +0.000 A 
ENDBRANCH  17  19
ENDBRANCH   1  17
TORSDOF 5
ENDMDL
MODEL 7
REMARK VINA RESULT:      -6.6     20.976     23.090
REMARK  Name = 20628252
REMARK  5 active torsions:
REMARK  status: ('A' for Active; 'I' for Inactive)
REMARK    1  A    between atoms: N_5  and  C_11
REMARK    2  A    between atoms: C_11  and  C_12
REMARK    3  A    between atoms: C_11  and  C_15
REMARK    4  A    between atoms: C_12  and  C_14
REMARK    5  A    between atoms: C_15  and  C_17
REMARK                            x       y       z     vdW  Elec       q    Type
REMARK                         _______ _______ _______ _____ _____    ______ ____
ROOT
ATOM      1  C   UNL     1      31.395  64.744  38.570  0.00  0.00    +0.000 C 
ENDROOT
BRANCH   1   2
ATOM      2  N   UNL     1      32.110  66.010  38.281  0.00  0.00    +0.000 NA
ATOM      3  H   UNL     1      31.595  66.799  38.671  0.00  0.00    +0.000 HD
ATOM      4  H   UNL     1      33.012  66.003  38.761  0.00  0.00    +0.000 HD
ENDBRANCH   1   2
BRANCH   1   5
ATOM      5  C   UNL     1      30.122  65.133  39.351  0.00  0.00    +0.000 C 
BRANCH   5  15
ATOM      6  O   UNL     1      28.722  63.412  40.302  0.00  0.00    +0.000 OA
ATOM      7  N   UNL     1      30.347  64.278  41.673  0.00  0.00    +0.000 N 
ATOM      8  N   UNL     1      30.727  65.196  44.253  0.00  0.00    +0.000 N 
ATOM      9  N   UNL     1      32.396  66.519  43.795  0.00  0.00    +0.000 NA
ATOM     10  N   UNL     1      32.041  66.698  45.117  0.00  0.00    +0.000 NA
ATOM     11  C   UNL     1      29.984  63.390  42.788  0.00  0.00    +0.000 C 
ATOM     12  C   UNL     1      31.557  65.089  41.889  0.00  0.00    +0.000 C 
ATOM     13  C   UNL     1      29.694  64.206  44.051  0.00  0.00    +0.000 C 
ATOM     14  C   UNL     1      31.587  65.621  43.278  0.00  0.00    +0.000 A 
ATOM     15  C   UNL     1      29.662  64.188  40.457  0.00  0.00    +0.000 C 
ATOM     16  C   UNL     1      31.028  65.897  45.371  0.00  0.00    +0.000 A 
ENDBRANCH   5  15
ENDBRANCH   1   5
BRANCH   1  17
ATOM     17  C   UNL     1      31.099  63.995  37.246  0.00  0.00    +0.000 C 
BRANCH  17  19
ATOM     18  F   UNL     1      31.255  66.171  35.375  0.00  0.00    +0.000 F 
ATOM     19  C   UNL     1      29.926  64.518  36.437  0.00  0.00    +0.000 A 
ATOM     20  C   UNL     1      30.067  65.574  35.531  0.00  0.00    +0.000 A 
ATOM     21  C   UNL     1      28.660  63.923  36.564  0.00  0.00    +0.000 A 
ATOM     22  C   UNL     1      28.989  66.027  34.766  0.00  0.00    +0.000 A 
ATOM     23  C   UNL     1      27.577  64.372  35.801  0.00  0.00    +0.000 A 
ATOM     24  C   UNL     1      27.740  65.422  34.900  0.00  0.00    +0.000 A 
ENDBRANCH  17  19
ENDBRANCH   1  17
TORSDOF 5
ENDMDL
MODEL 8
REMARK VINA RESULT:      -6.4     21.675     23.680
REMARK  Name = 20628252
REMARK  5 active torsions:
REMARK  status: ('A' for Active; 'I' for Inactive)
REMARK    1  A    between atoms: N_5  and  C_11
REMARK    2  A    between atoms: C_11  and  C_12
REMARK    3  A    between atoms: C_11  and  C_15
REMARK    4  A    between atoms: C_12  and  C_14
REMARK    5  A    between atoms: C_15  and  C_17
REMARK                            x       y       z     vdW  Elec       q    Type
REMARK                         _______ _______ _______ _____ _____    ______ ____
ROOT
ATOM      1  C   UNL     1      30.503  65.062  38.746  0.00  0.00    +0.000 C 
ENDROOT
BRANCH   1   2
ATOM      2  N   UNL     1      30.816  66.428  39.229  0.00  0.00    +0.000 NA
ATOM      3  H   UNL     1      31.458  66.381  40.019  0.00  0.00    +0.000 HD
ATOM      4  H   UNL     1      31.315  66.936  38.495  0.00  0.00    +0.000 HD
ENDBRANCH   1   2
BRANCH   1   5
ATOM      5  C   UNL     1      29.065  64.755  39.216  0.00  0.00    +0.000 C 
BRANCH   5  15
ATOM      6  O   UNL     1      27.908  66.594  40.266  0.00  0.00    +0.000 OA
ATOM      7  N   UNL     1      28.828  65.033  41.674  0.00  0.00    +0.000 N 
ATOM      8  N   UNL     1      30.319  64.835  43.994  0.00  0.00    +0.000 N 
ATOM      9  N   UNL     1      31.184  62.883  43.557  0.00  0.00    +0.000 NA
ATOM     10  N   UNL     1      31.761  63.374  44.712  0.00  0.00    +0.000 NA
ATOM     11  C   UNL     1      28.337  65.721  42.877  0.00  0.00    +0.000 C 
ATOM     12  C   UNL     1      29.459  63.725  41.916  0.00  0.00    +0.000 C 
ATOM     13  C   UNL     1      29.493  66.010  43.839  0.00  0.00    +0.000 C 
ATOM     14  C   UNL     1      30.326  63.779  43.124  0.00  0.00    +0.000 A 
ATOM     15  C   UNL     1      28.533  65.547  40.407  0.00  0.00    +0.000 C 
ATOM     16  C   UNL     1      31.232  64.555  44.953  0.00  0.00    +0.000 A 
ENDBRANCH   5  15
ENDBRANCH   1   5
BRANCH   1  17
ATOM     17  C   UNL     1      30.672  64.998  37.206  0.00  0.00    +0.000 C 
BRANCH  17  19
ATOM     18  F   UNL     1      28.795  63.301  35.845  0.00  0.00    +0.000 F 
ATOM     19  C   UNL     1      29.495  65.500  36.389  0.00  0.00    +0.000 A 
ATOM     20  C   UNL     1      28.607  64.624  35.759  0.00  0.00    +0.000 A 
ATOM     21  C   UNL     1      29.256  66.880  36.271  0.00  0.00    +0.000 A 
ATOM     22  C   UNL     1      27.508  65.094  35.037  0.00  0.00    +0.000 A 
ATOM     23  C   UNL     1      28.157  67.357  35.550  0.00  0.00    +0.000 A 
ATOM     24  C   UNL     1      27.281  66.466  34.933  0.00  0.00    +0.000 A 
ENDBRANCH  17  19
ENDBRANCH   1  17
TORSDOF 5
ENDMDL
MODEL 9
REMARK VINA RESULT:      -6.1     18.010     19.093
REMARK  Name = 20628252
REMARK  5 active torsions:
REMARK  status: ('A' for Active; 'I' for Inactive)
REMARK    1  A    between atoms: N_5  and  C_11
REMARK    2  A    between atoms: C_11  and  C_12
REMARK    3  A    between atoms: C_11  and  C_15
REMARK    4  A    between atoms: C_12  and  C_14
REMARK    5  A    between atoms: C_15  and  C_17
REMARK                            x       y       z     vdW  Elec       q    Type
REMARK                         _______ _______ _______ _____ _____    ______ ____
ROOT
ATOM      1  C   UNL     1      43.635  54.369  55.112  0.00  0.00    +0.000 C 
ENDROOT
BRANCH   1   2
ATOM      2  N   UNL     1      42.601  53.532  54.459  0.00  0.00    +0.000 NA
ATOM      3  H   UNL     1      42.037  54.101  53.829  0.00  0.00    +0.000 HD
ATOM      4  H   UNL     1      43.059  52.835  53.868  0.00  0.00    +0.000 HD
ENDBRANCH   1   2
BRANCH   1   5
ATOM      5  C   UNL     1      44.994  53.893  54.555  0.00  0.00    +0.000 C 
BRANCH   5  15
ATOM      6  O   UNL     1      44.665  53.833  52.165  0.00  0.00    +0.000 OA
ATOM      7  N   UNL     1      46.444  55.072  52.918  0.00  0.00    +0.000 N 
ATOM      8  N   UNL     1      49.118  55.545  52.394  0.00  0.00    +0.000 N 
ATOM      9  N   UNL     1      49.656  56.149  54.418  0.00  0.00    +0.000 NA
ATOM     10  N   UNL     1      50.805  56.083  53.656  0.00  0.00    +0.000 NA
ATOM     11  C   UNL     1      46.824  55.488  51.559  0.00  0.00    +0.000 C 
ATOM     12  C   UNL     1      47.202  55.717  54.004  0.00  0.00    +0.000 C 
ATOM     13  C   UNL     1      48.289  55.140  51.282  0.00  0.00    +0.000 C 
ATOM     14  C   UNL     1      48.645  55.808  53.651  0.00  0.00    +0.000 A 
ATOM     15  C   UNL     1      45.325  54.257  53.110  0.00  0.00    +0.000 C 
ATOM     16  C   UNL     1      50.460  55.709  52.442  0.00  0.00    +0.000 A 
ENDBRANCH   5  15
ENDBRANCH   1   5
BRANCH   1  17
ATOM     17  C   UNL     1      43.348  55.867  54.835  0.00  0.00    +0.000 C 
BRANCH  17  19
ATOM     18  F   UNL     1      44.144  58.542  55.520  0.00  0.00    +0.000 F 
ATOM     19  C   UNL     1      42.782  56.660  55.999  0.00  0.00    +0.000 A 
ATOM     20  C   UNL     1      43.201  57.965  56.276  0.00  0.00    +0.000 A 
ATOM     21  C   UNL     1      41.789  56.098  56.819  0.00  0.00    +0.000 A 
ATOM     22  C   UNL     1      42.651  58.699  57.329  0.00  0.00    +0.000 A 
ATOM     23  C   UNL     1      41.234  56.828  57.875  0.00  0.00    +0.000 A 
ATOM     24  C   UNL     1      41.662  58.129  58.130  0.00  0.00    +0.000 A 
ENDBRANCH  17  19
ENDBRANCH   1  17
TORSDOF 5
ENDMDL
