MODEL 1
REMARK VINA RESULT:      -8.5      0.000      0.000
REMARK  Name = 10173317
REMARK  7 active torsions:
REMARK  status: ('A' for Active; 'I' for Inactive)
REMARK    1  A    between atoms: N_12  and  C_20
REMARK    2  A    between atoms: C_13  and  C_18
REMARK    3  A    between atoms: C_17  and  C_19
REMARK    4  A    between atoms: C_19  and  C_20
REMARK    5  A    between atoms: C_20  and  C_22
REMARK    6  A    between atoms: C_21  and  C_23
REMARK    7  A    between atoms: C_22  and  C_24
REMARK                            x       y       z     vdW  Elec       q    Type
REMARK                         _______ _______ _______ _____ _____    ______ ____
ROOT
ATOM      1  O   UNL     1      50.375  48.962  33.682  0.00  0.00    +0.000 OA
ATOM      2  N   UNL     1      51.420  49.146  35.710  0.00  0.00    +0.000 N 
ATOM      3  N   UNL     1      53.871  50.189  36.495  0.00  0.00    +0.000 N 
ATOM      4  N   UNL     1      55.094  48.871  35.258  0.00  0.00    +0.000 NA
ATOM      5  N   UNL     1      55.922  49.752  35.917  0.00  0.00    +0.000 NA
ATOM      6  C   UNL     1      51.538  49.701  37.077  0.00  0.00    +0.000 C 
ATOM      7  C   UNL     1      52.674  50.735  37.093  0.00  0.00    +0.000 C 
ATOM      8  C   UNL     1      52.605  48.453  35.175  0.00  0.00    +0.000 C 
ATOM      9  C   UNL     1      53.856  49.148  35.602  0.00  0.00    +0.000 A 
ATOM     10  C   UNL     1      50.359  49.374  34.841  0.00  0.00    +0.000 C 
ATOM     11  C   UNL     1      51.742  48.609  38.136  0.00  0.00    +0.000 C 
ATOM     12  C   UNL     1      55.180  50.557  36.659  0.00  0.00    +0.000 A 
ENDROOT
BRANCH  12  16
ATOM     13  F   UNL     1      55.273  51.532  38.819  0.00  0.00    +0.000 F 
ATOM     14  F   UNL     1      55.188  52.877  37.120  0.00  0.00    +0.000 F 
ATOM     15  F   UNL     1      57.015  51.753  37.542  0.00  0.00    +0.000 F 
ATOM     16  C   UNL     1      55.660  51.668  37.522  0.00  0.00    +0.000 C 
ENDBRANCH  12  16
BRANCH  10  17
ATOM     17  C   UNL     1      49.189  50.186  35.373  0.00  0.00    +0.000 C 
BRANCH  17  18
ATOM     18  C   UNL     1      48.878  51.427  34.520  0.00  0.00    +0.000 C 
BRANCH  18  19
ATOM     19  N   UNL     1      50.159  52.077  34.175  0.00  0.00    +0.000 NA
ATOM     20  H   UNL     1      50.922  51.416  34.312  0.00  0.00    +0.000 HD
ATOM     21  H   UNL     1      50.345  52.848  34.819  0.00  0.00    +0.000 HD
ENDBRANCH  18  19
BRANCH  18  22
ATOM     22  C   UNL     1      47.953  52.418  35.272  0.00  0.00    +0.000 C 
BRANCH  22  26
ATOM     23  F   UNL     1      46.288  52.948  33.035  0.00  0.00    +0.000 F 
ATOM     24  F   UNL     1      43.913  50.542  37.307  0.00  0.00    +0.000 F 
ATOM     25  F   UNL     1      42.460  51.117  35.062  0.00  0.00    +0.000 F 
ATOM     26  C   UNL     1      46.484  52.055  35.228  0.00  0.00    +0.000 A 
ATOM     27  C   UNL     1      45.719  52.351  34.089  0.00  0.00    +0.000 A 
ATOM     28  C   UNL     1      45.857  51.447  36.323  0.00  0.00    +0.000 A 
ATOM     29  C   UNL     1      44.502  51.131  36.259  0.00  0.00    +0.000 A 
ATOM     30  C   UNL     1      44.365  52.040  34.023  0.00  0.00    +0.000 A 
ATOM     31  C   UNL     1      43.762  51.427  35.115  0.00  0.00    +0.000 A 
ENDBRANCH  22  26
ENDBRANCH  18  22
ENDBRANCH  17  18
ENDBRANCH  10  17
TORSDOF 6
ENDMDL
MODEL 2
REMARK VINA RESULT:      -8.4      6.683     12.406
REMARK  Name = 10173317
REMARK  7 active torsions:
REMARK  status: ('A' for Active; 'I' for Inactive)
REMARK    1  A    between atoms: N_12  and  C_20
REMARK    2  A    between atoms: C_13  and  C_18
REMARK    3  A    between atoms: C_17  and  C_19
REMARK    4  A    between atoms: C_19  and  C_20
REMARK    5  A    between atoms: C_20  and  C_22
REMARK    6  A    between atoms: C_21  and  C_23
REMARK    7  A    between atoms: C_22  and  C_24
REMARK                            x       y       z     vdW  Elec       q    Type
REMARK                         _______ _______ _______ _____ _____    ______ ____
ROOT
ATOM      1  O   UNL     1      40.970  53.883  37.176  0.00  0.00    +0.000 OA
ATOM      2  N   UNL     1      40.468  51.657  36.997  0.00  0.00    +0.000 N 
ATOM      3  N   UNL     1      38.074  50.253  36.887  0.00  0.00    +0.000 N 
ATOM      4  N   UNL     1      37.316  50.931  38.818  0.00  0.00    +0.000 NA
ATOM      5  N   UNL     1      36.364  50.132  38.226  0.00  0.00    +0.000 NA
ATOM      6  C   UNL     1      40.443  50.376  36.258  0.00  0.00    +0.000 C 
ATOM      7  C   UNL     1      39.005  50.105  35.792  0.00  0.00    +0.000 C 
ATOM      8  C   UNL     1      39.629  51.737  38.206  0.00  0.00    +0.000 C 
ATOM      9  C   UNL     1      38.341  51.011  38.000  0.00  0.00    +0.000 A 
ATOM     10  C   UNL     1      41.074  52.827  36.555  0.00  0.00    +0.000 C 
ATOM     11  C   UNL     1      41.007  49.212  37.084  0.00  0.00    +0.000 C 
ATOM     12  C   UNL     1      36.821  49.729  37.051  0.00  0.00    +0.000 A 
ENDROOT
BRANCH  12  16
ATOM     13  F   UNL     1      34.823  49.239  35.872  0.00  0.00    +0.000 F 
ATOM     14  F   UNL     1      36.065  47.565  36.467  0.00  0.00    +0.000 F 
ATOM     15  F   UNL     1      36.705  48.887  34.848  0.00  0.00    +0.000 F 
ATOM     16  C   UNL     1      36.114  48.863  36.070  0.00  0.00    +0.000 C 
ENDBRANCH  12  16
BRANCH  10  17
ATOM     17  C   UNL     1      41.847  52.756  35.246  0.00  0.00    +0.000 C 
BRANCH  17  18
ATOM     18  C   UNL     1      43.370  52.699  35.447  0.00  0.00    +0.000 C 
BRANCH  18  19
ATOM     19  N   UNL     1      44.008  53.395  34.312  0.00  0.00    +0.000 NA
ATOM     20  H   UNL     1      44.854  52.897  34.040  0.00  0.00    +0.000 HD
ATOM     21  H   UNL     1      44.317  54.325  34.601  0.00  0.00    +0.000 HD
ENDBRANCH  18  19
BRANCH  18  22
ATOM     22  C   UNL     1      43.877  51.236  35.542  0.00  0.00    +0.000 C 
BRANCH  22  26
ATOM     23  F   UNL     1      46.680  51.624  35.313  0.00  0.00    +0.000 F 
ATOM     24  F   UNL     1      44.863  49.840  40.130  0.00  0.00    +0.000 F 
ATOM     25  F   UNL     1      47.535  50.277  39.737  0.00  0.00    +0.000 F 
ATOM     26  C   UNL     1      44.844  50.983  36.679  0.00  0.00    +0.000 A 
ATOM     27  C   UNL     1      46.220  51.192  36.494  0.00  0.00    +0.000 A 
ATOM     28  C   UNL     1      44.393  50.513  37.918  0.00  0.00    +0.000 A 
ATOM     29  C   UNL     1      45.305  50.281  38.945  0.00  0.00    +0.000 A 
ATOM     30  C   UNL     1      47.133  50.957  37.515  0.00  0.00    +0.000 A 
ATOM     31  C   UNL     1      46.667  50.501  38.743  0.00  0.00    +0.000 A 
ENDBRANCH  22  26
ENDBRANCH  18  22
ENDBRANCH  17  18
ENDBRANCH  10  17
TORSDOF 6
ENDMDL
MODEL 3
REMARK VINA RESULT:      -7.9     20.483     21.709
REMARK  Name = 10173317
REMARK  7 active torsions:
REMARK  status: ('A' for Active; 'I' for Inactive)
REMARK    1  A    between atoms: N_12  and  C_20
REMARK    2  A    between atoms: C_13  and  C_18
REMARK    3  A    between atoms: C_17  and  C_19
REMARK    4  A    between atoms: C_19  and  C_20
REMARK    5  A    between atoms: C_20  and  C_22
REMARK    6  A    between atoms: C_21  and  C_23
REMARK    7  A    between atoms: C_22  and  C_24
REMARK                            x       y       z     vdW  Elec       q    Type
REMARK                         _______ _______ _______ _____ _____    ______ ____
ROOT
ATOM      1  O   UNL     1      54.452  71.501  36.767  0.00  0.00    +0.000 OA
ATOM      2  N   UNL     1      55.151  70.497  38.701  0.00  0.00    +0.000 N 
ATOM      3  N   UNL     1      56.663  71.377  40.858  0.00  0.00    +0.000 N 
ATOM      4  N   UNL     1      58.451  71.869  39.705  0.00  0.00    +0.000 NA
ATOM      5  N   UNL     1      58.668  72.205  41.023  0.00  0.00    +0.000 NA
ATOM      6  C   UNL     1      54.898  69.888  40.026  0.00  0.00    +0.000 C 
ATOM      7  C   UNL     1      55.330  70.883  41.115  0.00  0.00    +0.000 C 
ATOM      8  C   UNL     1      56.548  70.852  38.394  0.00  0.00    +0.000 C 
ATOM      9  C   UNL     1      57.234  71.381  39.610  0.00  0.00    +0.000 A 
ATOM     10  C   UNL     1      54.170  70.911  37.808  0.00  0.00    +0.000 C 
ATOM     11  C   UNL     1      55.589  68.528  40.187  0.00  0.00    +0.000 C 
ATOM     12  C   UNL     1      57.581  71.915  41.719  0.00  0.00    +0.000 A 
ENDROOT
BRANCH  12  16
ATOM     13  F   UNL     1      57.283  70.964  43.870  0.00  0.00    +0.000 F 
ATOM     14  F   UNL     1      56.226  72.807  43.441  0.00  0.00    +0.000 F 
ATOM     15  F   UNL     1      58.391  72.827  43.742  0.00  0.00    +0.000 F 
ATOM     16  C   UNL     1      57.373  72.129  43.175  0.00  0.00    +0.000 C 
ENDBRANCH  12  16
BRANCH  10  17
ATOM     17  C   UNL     1      52.724  70.636  38.191  0.00  0.00    +0.000 C 
BRANCH  17  18
ATOM     18  C   UNL     1      51.714  71.423  37.339  0.00  0.00    +0.000 C 
BRANCH  18  19
ATOM     19  N   UNL     1      51.909  72.862  37.611  0.00  0.00    +0.000 NA
ATOM     20  H   UNL     1      52.395  72.976  38.498  0.00  0.00    +0.000 HD
ATOM     21  H   UNL     1      51.004  73.320  37.732  0.00  0.00    +0.000 HD
ENDBRANCH  18  19
BRANCH  18  22
ATOM     22  C   UNL     1      50.255  71.004  37.654  0.00  0.00    +0.000 C 
BRANCH  22  26
ATOM     23  F   UNL     1      48.861  73.461  37.372  0.00  0.00    +0.000 F 
ATOM     24  F   UNL     1      49.258  71.466  42.426  0.00  0.00    +0.000 F 
ATOM     25  F   UNL     1      47.940  73.818  41.970  0.00  0.00    +0.000 F 
ATOM     26  C   UNL     1      49.632  71.742  38.820  0.00  0.00    +0.000 A 
ATOM     27  C   UNL     1      48.960  72.956  38.608  0.00  0.00    +0.000 A 
ATOM     28  C   UNL     1      49.737  71.248  40.126  0.00  0.00    +0.000 A 
ATOM     29  C   UNL     1      49.161  71.951  41.182  0.00  0.00    +0.000 A 
ATOM     30  C   UNL     1      48.388  73.662  39.659  0.00  0.00    +0.000 A 
ATOM     31  C   UNL     1      48.492  73.151  40.948  0.00  0.00    +0.000 A 
ENDBRANCH  22  26
ENDBRANCH  18  22
ENDBRANCH  17  18
ENDBRANCH  10  17
TORSDOF 6
ENDMDL
MODEL 4
REMARK VINA RESULT:      -7.9     19.612     22.587
REMARK  Name = 10173317
REMARK  7 active torsions:
REMARK  status: ('A' for Active; 'I' for Inactive)
REMARK    1  A    between atoms: N_12  and  C_20
REMARK    2  A    between atoms: C_13  and  C_18
REMARK    3  A    between atoms: C_17  and  C_19
REMARK    4  A    between atoms: C_19  and  C_20
REMARK    5  A    between atoms: C_20  and  C_22
REMARK    6  A    between atoms: C_21  and  C_23
REMARK    7  A    between atoms: C_22  and  C_24
REMARK                            x       y       z     vdW  Elec       q    Type
REMARK                         _______ _______ _______ _____ _____    ______ ____
ROOT
ATOM      1  O   UNL     1      55.219  70.116  40.419  0.00  0.00    +0.000 OA
ATOM      2  N   UNL     1      53.226  69.739  39.357  0.00  0.00    +0.000 N 
ATOM      3  N   UNL     1      50.838  71.152  39.244  0.00  0.00    +0.000 N 
ATOM      4  N   UNL     1      50.442  71.115  41.390  0.00  0.00    +0.000 NA
ATOM      5  N   UNL     1      49.449  71.840  40.770  0.00  0.00    +0.000 NA
ATOM      6  C   UNL     1      52.395  69.609  38.140  0.00  0.00    +0.000 C 
ATOM      7  C   UNL     1      51.523  70.866  38.004  0.00  0.00    +0.000 C 
ATOM      8  C   UNL     1      52.506  69.872  40.636  0.00  0.00    +0.000 C 
ATOM      9  C   UNL     1      51.284  70.712  40.465  0.00  0.00    +0.000 A 
ATOM     10  C   UNL     1      54.605  69.915  39.372  0.00  0.00    +0.000 C 
ATOM     11  C   UNL     1      51.554  68.325  38.139  0.00  0.00    +0.000 C 
ATOM     12  C   UNL     1      49.695  71.870  39.470  0.00  0.00    +0.000 A 
ENDROOT
BRANCH  12  16
ATOM     13  F   UNL     1      49.634  73.381  37.644  0.00  0.00    +0.000 F 
ATOM     14  F   UNL     1      47.908  73.333  38.956  0.00  0.00    +0.000 F 
ATOM     15  F   UNL     1      48.291  71.677  37.582  0.00  0.00    +0.000 F 
ATOM     16  C   UNL     1      48.888  72.556  38.426  0.00  0.00    +0.000 C 
ENDBRANCH  12  16
BRANCH  10  17
ATOM     17  C   UNL     1      55.322  69.884  38.031  0.00  0.00    +0.000 C 
BRANCH  17  18
ATOM     18  C   UNL     1      55.667  71.285  37.499  0.00  0.00    +0.000 C 
BRANCH  18  19
ATOM     19  N   UNL     1      54.782  71.570  36.353  0.00  0.00    +0.000 NA
ATOM     20  H   UNL     1      55.019  70.952  35.578  0.00  0.00    +0.000 HD
ATOM     21  H   UNL     1      54.949  72.518  36.008  0.00  0.00    +0.000 HD
ENDBRANCH  18  19
BRANCH  18  22
ATOM     22  C   UNL     1      57.155  71.381  37.074  0.00  0.00    +0.000 C 
BRANCH  22  26
ATOM     23  F   UNL     1      59.278  69.498  37.014  0.00  0.00    +0.000 F 
ATOM     24  F   UNL     1      58.849  72.525  41.523  0.00  0.00    +0.000 F 
ATOM     25  F   UNL     1      60.843  70.667  41.292  0.00  0.00    +0.000 F 
ATOM     26  C   UNL     1      58.141  71.208  38.209  0.00  0.00    +0.000 A 
ATOM     27  C   UNL     1      59.166  70.253  38.114  0.00  0.00    +0.000 A 
ATOM     28  C   UNL     1      58.036  71.970  39.379  0.00  0.00    +0.000 A 
ATOM     29  C   UNL     1      58.952  71.785  40.412  0.00  0.00    +0.000 A 
ATOM     30  C   UNL     1      60.079  70.063  39.144  0.00  0.00    +0.000 A 
ATOM     31  C   UNL     1      59.966  70.836  40.294  0.00  0.00    +0.000 A 
ENDBRANCH  22  26
ENDBRANCH  18  22
ENDBRANCH  17  18
ENDBRANCH  10  17
TORSDOF 6
ENDMDL
MODEL 5
REMARK VINA RESULT:      -7.9     23.562     25.718
REMARK  Name = 10173317
REMARK  7 active torsions:
REMARK  status: ('A' for Active; 'I' for Inactive)
REMARK    1  A    between atoms: N_12  and  C_20
REMARK    2  A    between atoms: C_13  and  C_18
REMARK    3  A    between atoms: C_17  and  C_19
REMARK    4  A    between atoms: C_19  and  C_20
REMARK    5  A    between atoms: C_20  and  C_22
REMARK    6  A    between atoms: C_21  and  C_23
REMARK    7  A    between atoms: C_22  and  C_24
REMARK                            x       y       z     vdW  Elec       q    Type
REMARK                         _______ _______ _______ _____ _____    ______ ____
ROOT
ATOM      1  O   UNL     1      28.258  63.111  39.416  0.00  0.00    +0.000 OA
ATOM      2  N   UNL     1      29.705  64.515  40.500  0.00  0.00    +0.000 N 
ATOM      3  N   UNL     1      31.334  64.211  42.728  0.00  0.00    +0.000 N 
ATOM      4  N   UNL     1      29.729  63.736  44.129  0.00  0.00    +0.000 NA
ATOM      5  N   UNL     1      30.932  63.664  44.795  0.00  0.00    +0.000 NA
ATOM      6  C   UNL     1      30.949  65.313  40.570  0.00  0.00    +0.000 C 
ATOM      7  C   UNL     1      31.952  64.583  41.476  0.00  0.00    +0.000 C 
ATOM      8  C   UNL     1      29.002  64.277  41.773  0.00  0.00    +0.000 C 
ATOM      9  C   UNL     1      29.979  64.054  42.878  0.00  0.00    +0.000 A 
ATOM     10  C   UNL     1      29.249  63.838  39.375  0.00  0.00    +0.000 C 
ATOM     11  C   UNL     1      30.695  66.752  41.038  0.00  0.00    +0.000 C 
ATOM     12  C   UNL     1      31.905  63.944  43.943  0.00  0.00    +0.000 A 
ENDROOT
BRANCH  12  16
ATOM     13  F   UNL     1      34.059  63.059  43.497  0.00  0.00    +0.000 F 
ATOM     14  F   UNL     1      33.638  63.679  45.532  0.00  0.00    +0.000 F 
ATOM     15  F   UNL     1      33.920  65.175  43.964  0.00  0.00    +0.000 F 
ATOM     16  C   UNL     1      33.363  63.967  44.233  0.00  0.00    +0.000 C 
ENDBRANCH  12  16
BRANCH  10  17
ATOM     17  C   UNL     1      30.050  64.005  38.093  0.00  0.00    +0.000 C 
BRANCH  17  18
ATOM     18  C   UNL     1      29.168  64.062  36.834  0.00  0.00    +0.000 C 
BRANCH  18  19
ATOM     19  N   UNL     1      29.248  62.751  36.160  0.00  0.00    +0.000 NA
ATOM     20  H   UNL     1      28.420  62.202  36.386  0.00  0.00    +0.000 HD
ATOM     21  H   UNL     1      30.039  62.217  36.526  0.00  0.00    +0.000 HD
ENDBRANCH  18  19
BRANCH  18  22
ATOM     22  C   UNL     1      29.619  65.194  35.874  0.00  0.00    +0.000 C 
BRANCH  22  26
ATOM     23  F   UNL     1      27.938  65.628  33.628  0.00  0.00    +0.000 F 
ATOM     24  F   UNL     1      27.561  69.255  37.677  0.00  0.00    +0.000 F 
ATOM     25  F   UNL     1      26.007  69.515  35.440  0.00  0.00    +0.000 F 
ATOM     26  C   UNL     1      28.649  66.352  35.777  0.00  0.00    +0.000 A 
ATOM     27  C   UNL     1      27.850  66.508  34.633  0.00  0.00    +0.000 A 
ATOM     28  C   UNL     1      28.550  67.299  36.803  0.00  0.00    +0.000 A 
ATOM     29  C   UNL     1      27.655  68.360  36.685  0.00  0.00    +0.000 A 
ATOM     30  C   UNL     1      26.960  67.568  34.509  0.00  0.00    +0.000 A 
ATOM     31  C   UNL     1      26.866  68.493  35.543  0.00  0.00    +0.000 A 
ENDBRANCH  22  26
ENDBRANCH  18  22
ENDBRANCH  17  18
ENDBRANCH  10  17
TORSDOF 6
ENDMDL
MODEL 6
REMARK VINA RESULT:      -7.8     19.869     22.932
REMARK  Name = 10173317
REMARK  7 active torsions:
REMARK  status: ('A' for Active; 'I' for Inactive)
REMARK    1  A    between atoms: N_12  and  C_20
REMARK    2  A    between atoms: C_13  and  C_18
REMARK    3  A    between atoms: C_17  and  C_19
REMARK    4  A    between atoms: C_19  and  C_20
REMARK    5  A    between atoms: C_20  and  C_22
REMARK    6  A    between atoms: C_21  and  C_23
REMARK    7  A    between atoms: C_22  and  C_24
REMARK                            x       y       z     vdW  Elec       q    Type
REMARK                         _______ _______ _______ _____ _____    ______ ____
ROOT
ATOM      1  O   UNL     1      53.944  70.839  42.767  0.00  0.00    +0.000 OA
ATOM      2  N   UNL     1      52.494  70.177  41.125  0.00  0.00    +0.000 N 
ATOM      3  N   UNL     1      50.251  71.352  39.986  0.00  0.00    +0.000 N 
ATOM      4  N   UNL     1      49.102  71.505  41.835  0.00  0.00    +0.000 NA
ATOM      5  N   UNL     1      48.371  72.070  40.813  0.00  0.00    +0.000 NA
ATOM      6  C   UNL     1      52.170  69.846  39.719  0.00  0.00    +0.000 C 
ATOM      7  C   UNL     1      51.352  71.000  39.119  0.00  0.00    +0.000 C 
ATOM      8  C   UNL     1      51.353  70.380  42.034  0.00  0.00    +0.000 C 
ATOM      9  C   UNL     1      50.241  71.085  41.331  0.00  0.00    +0.000 A 
ATOM     10  C   UNL     1      53.763  70.476  41.606  0.00  0.00    +0.000 C 
ATOM     11  C   UNL     1      51.446  68.500  39.586  0.00  0.00    +0.000 C 
ATOM     12  C   UNL     1      49.072  71.985  39.694  0.00  0.00    +0.000 A 
ENDROOT
BRANCH  12  16
ATOM     13  F   UNL     1      48.461  71.478  37.461  0.00  0.00    +0.000 F 
ATOM     14  F   UNL     1      49.616  73.283  37.792  0.00  0.00    +0.000 F 
ATOM     15  F   UNL     1      47.516  73.196  38.394  0.00  0.00    +0.000 F 
ATOM     16  C   UNL     1      48.671  72.483  38.352  0.00  0.00    +0.000 C 
ENDBRANCH  12  16
BRANCH  10  17
ATOM     17  C   UNL     1      54.920  70.368  40.625  0.00  0.00    +0.000 C 
BRANCH  17  18
ATOM     18  C   UNL     1      55.961  71.488  40.794  0.00  0.00    +0.000 C 
BRANCH  18  19
ATOM     19  N   UNL     1      55.291  72.644  41.424  0.00  0.00    +0.000 NA
ATOM     20  H   UNL     1      54.453  72.327  41.910  0.00  0.00    +0.000 HD
ATOM     21  H   UNL     1      54.963  73.292  40.705  0.00  0.00    +0.000 HD
ENDBRANCH  18  19
BRANCH  18  22
ATOM     22  C   UNL     1      56.584  71.896  39.434  0.00  0.00    +0.000 C 
BRANCH  22  26
ATOM     23  F   UNL     1      58.850  72.385  41.072  0.00  0.00    +0.000 F 
ATOM     24  F   UNL     1      59.622  69.128  36.772  0.00  0.00    +0.000 F 
ATOM     25  F   UNL     1      61.696  69.699  38.463  0.00  0.00    +0.000 F 
ATOM     26  C   UNL     1      57.946  71.292  39.165  0.00  0.00    +0.000 A 
ATOM     27  C   UNL     1      59.025  71.581  40.016  0.00  0.00    +0.000 A 
ATOM     28  C   UNL     1      58.162  70.464  38.058  0.00  0.00    +0.000 A 
ATOM     29  C   UNL     1      59.427  69.927  37.829  0.00  0.00    +0.000 A 
ATOM     30  C   UNL     1      60.289  71.051  39.788  0.00  0.00    +0.000 A 
ATOM     31  C   UNL     1      60.484  70.221  38.690  0.00  0.00    +0.000 A 
ENDBRANCH  22  26
ENDBRANCH  18  22
ENDBRANCH  17  18
ENDBRANCH  10  17
TORSDOF 6
ENDMDL
MODEL 7
REMARK VINA RESULT:      -7.7     23.383     26.435
REMARK  Name = 10173317
REMARK  7 active torsions:
REMARK  status: ('A' for Active; 'I' for Inactive)
REMARK    1  A    between atoms: N_12  and  C_20
REMARK    2  A    between atoms: C_13  and  C_18
REMARK    3  A    between atoms: C_17  and  C_19
REMARK    4  A    between atoms: C_19  and  C_20
REMARK    5  A    between atoms: C_20  and  C_22
REMARK    6  A    between atoms: C_21  and  C_23
REMARK    7  A    between atoms: C_22  and  C_24
REMARK                            x       y       z     vdW  Elec       q    Type
REMARK                         _______ _______ _______ _____ _____    ______ ____
ROOT
ATOM      1  O   UNL     1      28.722  63.095  40.478  0.00  0.00    +0.000 OA
ATOM      2  N   UNL     1      29.551  64.709  39.081  0.00  0.00    +0.000 N 
ATOM      3  N   UNL     1      28.632  65.820  36.708  0.00  0.00    +0.000 N 
ATOM      4  N   UNL     1      28.586  63.953  35.578  0.00  0.00    +0.000 NA
ATOM      5  N   UNL     1      28.111  64.966  34.776  0.00  0.00    +0.000 NA
ATOM      6  C   UNL     1      29.927  66.107  38.773  0.00  0.00    +0.000 C 
ATOM      7  C   UNL     1      28.873  66.702  37.827  0.00  0.00    +0.000 C 
ATOM      8  C   UNL     1      29.463  63.782  37.939  0.00  0.00    +0.000 C 
ATOM      9  C   UNL     1      28.887  64.472  36.747  0.00  0.00    +0.000 A 
ATOM     10  C   UNL     1      29.114  64.250  40.319  0.00  0.00    +0.000 C 
ATOM     11  C   UNL     1      31.344  66.217  38.195  0.00  0.00    +0.000 C 
ATOM     12  C   UNL     1      28.131  66.096  35.464  0.00  0.00    +0.000 A 
ENDROOT
BRANCH  12  16
ATOM     13  F   UNL     1      27.325  67.436  33.682  0.00  0.00    +0.000 F 
ATOM     14  F   UNL     1      28.670  68.371  35.102  0.00  0.00    +0.000 F 
ATOM     15  F   UNL     1      26.617  67.895  35.682  0.00  0.00    +0.000 F 
ATOM     16  C   UNL     1      27.691  67.435  34.991  0.00  0.00    +0.000 C 
ENDBRANCH  12  16
BRANCH  10  17
ATOM     17  C   UNL     1      29.106  65.250  41.465  0.00  0.00    +0.000 C 
BRANCH  17  18
ATOM     18  C   UNL     1      28.504  64.678  42.760  0.00  0.00    +0.000 C 
BRANCH  18  19
ATOM     19  N   UNL     1      27.164  65.271  42.943  0.00  0.00    +0.000 NA
ATOM     20  H   UNL     1      26.510  64.547  43.238  0.00  0.00    +0.000 HD
ATOM     21  H   UNL     1      26.809  65.613  42.048  0.00  0.00    +0.000 HD
ENDBRANCH  18  19
BRANCH  18  22
ATOM     22  C   UNL     1      29.404  64.980  43.986  0.00  0.00    +0.000 C 
BRANCH  22  26
ATOM     23  F   UNL     1      29.996  62.259  43.433  0.00  0.00    +0.000 F 
ATOM     24  F   UNL     1      34.262  65.577  44.127  0.00  0.00    +0.000 F 
ATOM     25  F   UNL     1      34.649  62.926  43.578  0.00  0.00    +0.000 F 
ATOM     26  C   UNL     1      30.816  64.446  43.871  0.00  0.00    +0.000 A 
ATOM     27  C   UNL     1      31.036  63.087  43.599  0.00  0.00    +0.000 A 
ATOM     28  C   UNL     1      31.922  65.284  44.059  0.00  0.00    +0.000 A 
ATOM     29  C   UNL     1      33.210  64.766  43.955  0.00  0.00    +0.000 A 
ATOM     30  C   UNL     1      32.320  62.565  43.499  0.00  0.00    +0.000 A 
ATOM     31  C   UNL     1      33.407  63.414  43.677  0.00  0.00    +0.000 A 
ENDBRANCH  22  26
ENDBRANCH  18  22
ENDBRANCH  17  18
ENDBRANCH  10  17
TORSDOF 6
ENDMDL
MODEL 8
REMARK VINA RESULT:      -7.6      5.418      8.081
REMARK  Name = 10173317
REMARK  7 active torsions:
REMARK  status: ('A' for Active; 'I' for Inactive)
REMARK    1  A    between atoms: N_12  and  C_20
REMARK    2  A    between atoms: C_13  and  C_18
REMARK    3  A    between atoms: C_17  and  C_19
REMARK    4  A    between atoms: C_19  and  C_20
REMARK    5  A    between atoms: C_20  and  C_22
REMARK    6  A    between atoms: C_21  and  C_23
REMARK    7  A    between atoms: C_22  and  C_24
REMARK                            x       y       z     vdW  Elec       q    Type
REMARK                         _______ _______ _______ _____ _____    ______ ____
ROOT
ATOM      1  O   UNL     1      50.248  48.679  39.740  0.00  0.00    +0.000 OA
ATOM      2  N   UNL     1      50.706  50.219  41.370  0.00  0.00    +0.000 N 
ATOM      3  N   UNL     1      52.081  50.082  43.779  0.00  0.00    +0.000 N 
ATOM      4  N   UNL     1      50.820  48.546  44.681  0.00  0.00    +0.000 NA
ATOM      5  N   UNL     1      51.839  48.851  45.556  0.00  0.00    +0.000 NA
ATOM      6  C   UNL     1      51.373  51.444  41.864  0.00  0.00    +0.000 C 
ATOM      7  C   UNL     1      52.529  51.035  42.790  0.00  0.00    +0.000 C 
ATOM      8  C   UNL     1      50.114  49.334  42.389  0.00  0.00    +0.000 C 
ATOM      9  C   UNL     1      50.979  49.283  43.605  0.00  0.00    +0.000 A 
ATOM     10  C   UNL     1      50.742  49.759  40.059  0.00  0.00    +0.000 C 
ATOM     11  C   UNL     1      50.396  52.404  42.556  0.00  0.00    +0.000 C 
ATOM     12  C   UNL     1      52.608  49.776  45.005  0.00  0.00    +0.000 A 
ENDROOT
BRANCH  12  16
ATOM     13  F   UNL     1      53.707  51.726  45.787  0.00  0.00    +0.000 F 
ATOM     14  F   UNL     1      54.922  50.224  44.801  0.00  0.00    +0.000 F 
ATOM     15  F   UNL     1      54.133  49.856  46.806  0.00  0.00    +0.000 F 
ATOM     16  C   UNL     1      53.830  50.385  45.593  0.00  0.00    +0.000 C 
ENDBRANCH  12  16
BRANCH  10  17
ATOM     17  C   UNL     1      51.453  50.633  39.037  0.00  0.00    +0.000 C 
BRANCH  17  18
ATOM     18  C   UNL     1      52.734  49.989  38.480  0.00  0.00    +0.000 C 
BRANCH  18  19
ATOM     19  N   UNL     1      53.820  50.213  39.455  0.00  0.00    +0.000 NA
ATOM     20  H   UNL     1      54.687  49.819  39.094  0.00  0.00    +0.000 HD
ATOM     21  H   UNL     1      53.625  49.701  40.318  0.00  0.00    +0.000 HD
ENDBRANCH  18  19
BRANCH  18  22
ATOM     22  C   UNL     1      53.114  50.583  37.099  0.00  0.00    +0.000 C 
BRANCH  22  26
ATOM     23  F   UNL     1      51.022  50.131  35.234  0.00  0.00    +0.000 F 
ATOM     24  F   UNL     1      55.488  47.063  34.658  0.00  0.00    +0.000 F 
ATOM     25  F   UNL     1      53.379  46.767  32.942  0.00  0.00    +0.000 F 
ATOM     26  C   UNL     1      53.204  49.562  35.984  0.00  0.00    +0.000 A 
ATOM     27  C   UNL     1      52.128  49.389  35.099  0.00  0.00    +0.000 A 
ATOM     28  C   UNL     1      54.340  48.758  35.831  0.00  0.00    +0.000 A 
ATOM     29  C   UNL     1      54.394  47.821  34.802  0.00  0.00    +0.000 A 
ATOM     30  C   UNL     1      52.176  48.452  34.074  0.00  0.00    +0.000 A 
ATOM     31  C   UNL     1      53.317  47.670  33.930  0.00  0.00    +0.000 A 
ENDBRANCH  22  26
ENDBRANCH  18  22
ENDBRANCH  17  18
ENDBRANCH  10  17
TORSDOF 6
ENDMDL
MODEL 9
REMARK VINA RESULT:      -7.4     16.521     18.325
REMARK  Name = 10173317
REMARK  7 active torsions:
REMARK  status: ('A' for Active; 'I' for Inactive)
REMARK    1  A    between atoms: N_12  and  C_20
REMARK    2  A    between atoms: C_13  and  C_18
REMARK    3  A    between atoms: C_17  and  C_19
REMARK    4  A    between atoms: C_19  and  C_20
REMARK    5  A    between atoms: C_20  and  C_22
REMARK    6  A    between atoms: C_21  and  C_23
REMARK    7  A    between atoms: C_22  and  C_24
REMARK                            x       y       z     vdW  Elec       q    Type
REMARK                         _______ _______ _______ _____ _____    ______ ____
ROOT
ATOM      1  O   UNL     1      38.169  50.063  43.643  0.00  0.00    +0.000 OA
ATOM      2  N   UNL     1      37.112  48.879  45.292  0.00  0.00    +0.000 N 
ATOM      3  N   UNL     1      37.148  49.039  48.064  0.00  0.00    +0.000 N 
ATOM      4  N   UNL     1      39.290  48.686  48.291  0.00  0.00    +0.000 NA
ATOM      5  N   UNL     1      38.745  48.912  49.536  0.00  0.00    +0.000 NA
ATOM      6  C   UNL     1      35.901  48.460  46.032  0.00  0.00    +0.000 C 
ATOM      7  C   UNL     1      35.879  49.180  47.389  0.00  0.00    +0.000 C 
ATOM      8  C   UNL     1      38.408  48.585  45.928  0.00  0.00    +0.000 C 
ATOM      9  C   UNL     1      38.323  48.777  47.406  0.00  0.00    +0.000 A 
ATOM     10  C   UNL     1      37.119  49.669  44.148  0.00  0.00    +0.000 C 
ATOM     11  C   UNL     1      35.810  46.936  46.191  0.00  0.00    +0.000 C 
ATOM     12  C   UNL     1      37.448  49.134  49.397  0.00  0.00    +0.000 A 
ENDROOT
BRANCH  12  16
ATOM     13  F   UNL     1      35.753  50.564  50.236  0.00  0.00    +0.000 F 
ATOM     14  F   UNL     1      37.080  49.636  51.679  0.00  0.00    +0.000 F 
ATOM     15  F   UNL     1      35.570  48.440  50.647  0.00  0.00    +0.000 F 
ATOM     16  C   UNL     1      36.475  49.437  50.479  0.00  0.00    +0.000 C 
ENDBRANCH  12  16
BRANCH  10  17
ATOM     17  C   UNL     1      35.770  50.058  43.565  0.00  0.00    +0.000 C 
BRANCH  17  18
ATOM     18  C   UNL     1      35.603  51.577  43.390  0.00  0.00    +0.000 C 
BRANCH  18  19
ATOM     19  N   UNL     1      36.088  51.938  42.043  0.00  0.00    +0.000 NA
ATOM     20  H   UNL     1      35.605  51.374  41.346  0.00  0.00    +0.000 HD
ATOM     21  H   UNL     1      37.078  51.699  41.952  0.00  0.00    +0.000 HD
ENDBRANCH  18  19
BRANCH  18  22
ATOM     22  C   UNL     1      36.381  52.363  44.477  0.00  0.00    +0.000 C 
BRANCH  22  26
ATOM     23  F   UNL     1      35.371  54.938  43.840  0.00  0.00    +0.000 F 
ATOM     24  F   UNL     1      34.028  52.947  48.731  0.00  0.00    +0.000 F 
ATOM     25  F   UNL     1      33.133  55.411  47.950  0.00  0.00    +0.000 F 
ATOM     26  C   UNL     1      35.504  53.164  45.415  0.00  0.00    +0.000 A 
ATOM     27  C   UNL     1      35.043  54.434  45.037  0.00  0.00    +0.000 A 
ATOM     28  C   UNL     1      35.160  52.671  46.680  0.00  0.00    +0.000 A 
ATOM     29  C   UNL     1      34.358  53.431  47.527  0.00  0.00    +0.000 A 
ATOM     30  C   UNL     1      34.246  55.198  45.881  0.00  0.00    +0.000 A 
ATOM     31  C   UNL     1      33.905  54.688  47.129  0.00  0.00    +0.000 A 
ENDBRANCH  22  26
ENDBRANCH  18  22
ENDBRANCH  17  18
ENDBRANCH  10  17
TORSDOF 6
ENDMDL
