MODEL 1
REMARK VINA RESULT:      -9.7      0.000      0.000
REMARK  Name = 24776808
REMARK  9 active torsions:
REMARK  status: ('A' for Active; 'I' for Inactive)
REMARK    1  A    between atoms: N_15  and  C_25
REMARK    2  A    between atoms: C_16  and  C_20
REMARK    3  A    between atoms: C_20  and  C_24
REMARK    4  A    between atoms: C_21  and  C_22
REMARK    5  A    between atoms: C_22  and  C_25
REMARK    6  A    between atoms: C_23  and  C_28
REMARK    7  A    between atoms: C_25  and  C_26
REMARK    8  A    between atoms: C_26  and  C_30
REMARK    9  A    between atoms: C_27  and  C_32
REMARK                            x       y       z     vdW  Elec       q    Type
REMARK                         _______ _______ _______ _____ _____    ______ ____
ROOT
ATOM      1  O   UNL     1      40.296  52.055  39.975  0.00  0.00    +0.000 OA
ATOM      2  N   UNL     1      38.338  51.392  38.964  0.00  0.00    +0.000 N 
ATOM      3  N   UNL     1      36.865  50.043  36.987  0.00  0.00    +0.000 N 
ATOM      4  N   UNL     1      38.360  50.145  35.422  0.00  0.00    +0.000 NA
ATOM      5  N   UNL     1      37.267  49.462  34.938  0.00  0.00    +0.000 NA
ATOM      6  C   UNL     1      39.081  51.075  37.688  0.00  0.00    +0.000 C 
ATOM      7  C   UNL     1      36.889  51.610  38.825  0.00  0.00    +0.000 C 
ATOM      8  C   UNL     1      38.147  50.417  36.691  0.00  0.00    +0.000 A 
ATOM      9  C   UNL     1      36.198  50.406  38.209  0.00  0.00    +0.000 C 
ATOM     10  C   UNL     1      39.066  51.961  40.009  0.00  0.00    +0.000 C 
ATOM     11  C   UNL     1      36.380  49.354  35.910  0.00  0.00    +0.000 A 
ENDROOT
BRANCH  11  15
ATOM     12  F   UNL     1      34.020  49.459  35.964  0.00  0.00    +0.000 F 
ATOM     13  F   UNL     1      34.966  47.771  36.949  0.00  0.00    +0.000 F 
ATOM     14  F   UNL     1      34.923  47.887  34.765  0.00  0.00    +0.000 F 
ATOM     15  C   UNL     1      35.091  48.617  35.895  0.00  0.00    +0.000 C 
ENDBRANCH  11  15
BRANCH   6  16
ATOM     16  C   UNL     1      40.347  50.176  37.894  0.00  0.00    +0.000 C 
BRANCH  16  17
ATOM     17  C   UNL     1      41.620  50.583  37.165  0.00  0.00    +0.000 A 
ATOM     18  C   UNL     1      42.925  50.410  37.682  0.00  0.00    +0.000 A 
ATOM     19  C   UNL     1      41.471  51.146  35.881  0.00  0.00    +0.000 A 
ATOM     20  C   UNL     1      44.016  50.941  36.959  0.00  0.00    +0.000 A 
ATOM     21  C   UNL     1      42.569  51.613  35.161  0.00  0.00    +0.000 A 
ATOM     22  C   UNL     1      43.839  51.542  35.714  0.00  0.00    +0.000 A 
BRANCH  18  26
ATOM     23  F   UNL     1      44.593  49.405  39.132  0.00  0.00    +0.000 F 
ATOM     24  F   UNL     1      42.892  50.350  40.071  0.00  0.00    +0.000 F 
ATOM     25  F   UNL     1      42.648  48.455  39.039  0.00  0.00    +0.000 F 
ATOM     26  C   UNL     1      43.272  49.664  38.953  0.00  0.00    +0.000 C 
ENDBRANCH  18  26
ENDBRANCH  16  17
ENDBRANCH   6  16
BRANCH  10  27
ATOM     27  C   UNL     1      38.344  52.444  41.264  0.00  0.00    +0.000 C 
BRANCH  27  28
ATOM     28  C   UNL     1      38.355  51.324  42.319  0.00  0.00    +0.000 C 
BRANCH  28  29
ATOM     29  N   UNL     1      39.288  50.272  41.881  0.00  0.00    +0.000 NA
ATOM     30  H   UNL     1      39.992  50.102  42.602  0.00  0.00    +0.000 HD
ATOM     31  H   UNL     1      39.816  50.616  41.076  0.00  0.00    +0.000 HD
ENDBRANCH  28  29
BRANCH  28  32
ATOM     32  C   UNL     1      36.911  50.789  42.504  0.00  0.00    +0.000 C 
BRANCH  32  36
ATOM     33  F   UNL     1      37.118  48.933  44.625  0.00  0.00    +0.000 F 
ATOM     34  F   UNL     1      34.246  53.460  45.603  0.00  0.00    +0.000 F 
ATOM     35  F   UNL     1      34.490  51.528  47.528  0.00  0.00    +0.000 F 
ATOM     36  C   UNL     1      36.305  51.025  43.859  0.00  0.00    +0.000 A 
ATOM     37  C   UNL     1      36.418  50.051  44.858  0.00  0.00    +0.000 A 
ATOM     38  C   UNL     1      35.560  52.185  44.117  0.00  0.00    +0.000 A 
ATOM     39  C   UNL     1      34.957  52.350  45.358  0.00  0.00    +0.000 A 
ATOM     40  C   UNL     1      35.812  50.212  46.096  0.00  0.00    +0.000 A 
ATOM     41  C   UNL     1      35.083  51.370  46.338  0.00  0.00    +0.000 A 
ENDBRANCH  32  36
ENDBRANCH  28  32
ENDBRANCH  27  28
ENDBRANCH  10  27
TORSDOF 9
ENDMDL
MODEL 2
REMARK VINA RESULT:      -9.0      3.722      9.260
REMARK  Name = 24776808
REMARK  9 active torsions:
REMARK  status: ('A' for Active; 'I' for Inactive)
REMARK    1  A    between atoms: N_15  and  C_25
REMARK    2  A    between atoms: C_16  and  C_20
REMARK    3  A    between atoms: C_20  and  C_24
REMARK    4  A    between atoms: C_21  and  C_22
REMARK    5  A    between atoms: C_22  and  C_25
REMARK    6  A    between atoms: C_23  and  C_28
REMARK    7  A    between atoms: C_25  and  C_26
REMARK    8  A    between atoms: C_26  and  C_30
REMARK    9  A    between atoms: C_27  and  C_32
REMARK                            x       y       z     vdW  Elec       q    Type
REMARK                         _______ _______ _______ _____ _____    ______ ____
ROOT
ATOM      1  O   UNL     1      39.662  48.594  44.506  0.00  0.00    +0.000 OA
ATOM      2  N   UNL     1      38.827  50.360  43.291  0.00  0.00    +0.000 N 
ATOM      3  N   UNL     1      36.902  52.326  42.716  0.00  0.00    +0.000 N 
ATOM      4  N   UNL     1      35.189  51.265  43.513  0.00  0.00    +0.000 NA
ATOM      5  N   UNL     1      34.766  52.489  43.047  0.00  0.00    +0.000 NA
ATOM      6  C   UNL     1      37.442  50.108  43.838  0.00  0.00    +0.000 C 
ATOM      7  C   UNL     1      38.891  51.133  42.040  0.00  0.00    +0.000 C 
ATOM      8  C   UNL     1      36.498  51.207  43.390  0.00  0.00    +0.000 A 
ATOM      9  C   UNL     1      38.229  52.493  42.188  0.00  0.00    +0.000 C 
ATOM     10  C   UNL     1      39.835  49.464  43.648  0.00  0.00    +0.000 C 
ATOM     11  C   UNL     1      35.820  53.155  42.613  0.00  0.00    +0.000 A 
ENDROOT
BRANCH  11  15
ATOM     12  F   UNL     1      34.704  55.217  42.316  0.00  0.00    +0.000 F 
ATOM     13  F   UNL     1      36.114  54.616  40.778  0.00  0.00    +0.000 F 
ATOM     14  F   UNL     1      36.837  55.286  42.731  0.00  0.00    +0.000 F 
ATOM     15  C   UNL     1      35.878  54.553  42.113  0.00  0.00    +0.000 C 
ENDBRANCH  11  15
BRANCH   6  16
ATOM     16  C   UNL     1      37.388  49.972  45.397  0.00  0.00    +0.000 C 
BRANCH  16  17
ATOM     17  C   UNL     1      36.370  49.003  45.980  0.00  0.00    +0.000 A 
ATOM     18  C   UNL     1      35.391  49.355  46.939  0.00  0.00    +0.000 A 
ATOM     19  C   UNL     1      36.403  47.676  45.505  0.00  0.00    +0.000 A 
ATOM     20  C   UNL     1      34.585  48.334  47.490  0.00  0.00    +0.000 A 
ATOM     21  C   UNL     1      35.558  46.697  46.024  0.00  0.00    +0.000 A 
ATOM     22  C   UNL     1      34.672  47.018  47.042  0.00  0.00    +0.000 A 
BRANCH  18  26
ATOM     23  F   UNL     1      34.667  51.622  46.462  0.00  0.00    +0.000 F 
ATOM     24  F   UNL     1      34.133  50.785  48.381  0.00  0.00    +0.000 F 
ATOM     25  F   UNL     1      36.189  51.358  47.982  0.00  0.00    +0.000 F 
ATOM     26  C   UNL     1      35.100  50.761  47.418  0.00  0.00    +0.000 C 
ENDBRANCH  18  26
ENDBRANCH  16  17
ENDBRANCH   6  16
BRANCH  10  27
ATOM     27  C   UNL     1      41.214  49.576  43.007  0.00  0.00    +0.000 C 
BRANCH  27  28
ATOM     28  C   UNL     1      41.447  48.368  42.083  0.00  0.00    +0.000 C 
BRANCH  28  29
ATOM     29  N   UNL     1      42.023  47.270  42.880  0.00  0.00    +0.000 NA
ATOM     30  H   UNL     1      42.847  47.598  43.386  0.00  0.00    +0.000 HD
ATOM     31  H   UNL     1      42.376  46.553  42.243  0.00  0.00    +0.000 HD
ENDBRANCH  28  29
BRANCH  28  32
ATOM     32  C   UNL     1      42.373  48.795  40.916  0.00  0.00    +0.000 C 
BRANCH  32  36
ATOM     33  F   UNL     1      42.028  46.877  38.869  0.00  0.00    +0.000 F 
ATOM     34  F   UNL     1      40.149  51.892  37.867  0.00  0.00    +0.000 F 
ATOM     35  F   UNL     1      39.955  49.932  35.965  0.00  0.00    +0.000 F 
ATOM     36  C   UNL     1      41.676  49.099  39.619  0.00  0.00    +0.000 A 
ATOM     37  C   UNL     1      41.565  48.111  38.633  0.00  0.00    +0.000 A 
ATOM     38  C   UNL     1      41.194  50.389  39.351  0.00  0.00    +0.000 A 
ATOM     39  C   UNL     1      40.609  50.659  38.120  0.00  0.00    +0.000 A 
ATOM     40  C   UNL     1      40.986  48.382  37.401  0.00  0.00    +0.000 A 
ATOM     41  C   UNL     1      40.508  49.662  37.154  0.00  0.00    +0.000 A 
ENDBRANCH  32  36
ENDBRANCH  28  32
ENDBRANCH  27  28
ENDBRANCH  10  27
TORSDOF 9
ENDMDL
MODEL 3
REMARK VINA RESULT:      -8.9     10.241     13.781
REMARK  Name = 24776808
REMARK  9 active torsions:
REMARK  status: ('A' for Active; 'I' for Inactive)
REMARK    1  A    between atoms: N_15  and  C_25
REMARK    2  A    between atoms: C_16  and  C_20
REMARK    3  A    between atoms: C_20  and  C_24
REMARK    4  A    between atoms: C_21  and  C_22
REMARK    5  A    between atoms: C_22  and  C_25
REMARK    6  A    between atoms: C_23  and  C_28
REMARK    7  A    between atoms: C_25  and  C_26
REMARK    8  A    between atoms: C_26  and  C_30
REMARK    9  A    between atoms: C_27  and  C_32
REMARK                            x       y       z     vdW  Elec       q    Type
REMARK                         _______ _______ _______ _____ _____    ______ ____
ROOT
ATOM      1  O   UNL     1      48.303  50.926  39.596  0.00  0.00    +0.000 OA
ATOM      2  N   UNL     1      49.976  49.835  38.454  0.00  0.00    +0.000 N 
ATOM      3  N   UNL     1      51.327  49.058  36.115  0.00  0.00    +0.000 N 
ATOM      4  N   UNL     1      49.617  49.121  34.785  0.00  0.00    +0.000 NA
ATOM      5  N   UNL     1      50.728  48.765  34.053  0.00  0.00    +0.000 NA
ATOM      6  C   UNL     1      49.174  49.898  37.176  0.00  0.00    +0.000 C 
ATOM      7  C   UNL     1      51.031  48.810  38.499  0.00  0.00    +0.000 C 
ATOM      8  C   UNL     1      50.002  49.383  36.016  0.00  0.00    +0.000 A 
ATOM      9  C   UNL     1      52.029  48.983  37.368  0.00  0.00    +0.000 C 
ATOM     10  C   UNL     1      49.376  50.318  39.617  0.00  0.00    +0.000 C 
ATOM     11  C   UNL     1      51.776  48.781  34.854  0.00  0.00    +0.000 A 
ENDROOT
BRANCH  11  15
ATOM     12  F   UNL     1      53.950  49.691  34.680  0.00  0.00    +0.000 F 
ATOM     13  F   UNL     1      53.366  48.217  33.198  0.00  0.00    +0.000 F 
ATOM     14  F   UNL     1      53.785  47.602  35.255  0.00  0.00    +0.000 F 
ATOM     15  C   UNL     1      53.203  48.565  34.499  0.00  0.00    +0.000 C 
ENDBRANCH  11  15
BRANCH   6  16
ATOM     16  C   UNL     1      48.624  51.325  36.839  0.00  0.00    +0.000 C 
BRANCH  16  17
ATOM     17  C   UNL     1      47.195  51.419  36.323  0.00  0.00    +0.000 A 
ATOM     18  C   UNL     1      46.831  51.996  35.083  0.00  0.00    +0.000 A 
ATOM     19  C   UNL     1      46.182  50.870  37.135  0.00  0.00    +0.000 A 
ATOM     20  C   UNL     1      45.459  52.132  34.777  0.00  0.00    +0.000 A 
ATOM     21  C   UNL     1      44.837  50.966  36.784  0.00  0.00    +0.000 A 
ATOM     22  C   UNL     1      44.472  51.628  35.621  0.00  0.00    +0.000 A 
BRANCH  18  26
ATOM     23  F   UNL     1      48.599  53.502  34.376  0.00  0.00    +0.000 F 
ATOM     24  F   UNL     1      48.654  51.474  33.630  0.00  0.00    +0.000 F 
ATOM     25  F   UNL     1      47.167  52.867  32.877  0.00  0.00    +0.000 F 
ATOM     26  C   UNL     1      47.798  52.465  34.017  0.00  0.00    +0.000 C 
ENDBRANCH  18  26
ENDBRANCH  16  17
ENDBRANCH   6  16
BRANCH  10  27
ATOM     27  C   UNL     1      50.075  50.142  40.962  0.00  0.00    +0.000 C 
BRANCH  27  28
ATOM     28  C   UNL     1      50.847  51.428  41.306  0.00  0.00    +0.000 C 
BRANCH  28  29
ATOM     29  N   UNL     1      50.444  52.487  40.363  0.00  0.00    +0.000 NA
ATOM     30  H   UNL     1      51.270  52.941  39.970  0.00  0.00    +0.000 HD
ATOM     31  H   UNL     1      49.964  53.224  40.883  0.00  0.00    +0.000 HD
ENDBRANCH  28  29
BRANCH  28  32
ATOM     32  C   UNL     1      52.369  51.135  41.244  0.00  0.00    +0.000 C 
BRANCH  32  36
ATOM     33  F   UNL     1      55.047  51.898  41.730  0.00  0.00    +0.000 F 
ATOM     34  F   UNL     1      52.384  49.537  45.857  0.00  0.00    +0.000 F 
ATOM     35  F   UNL     1      55.005  50.277  46.139  0.00  0.00    +0.000 F 
ATOM     36  C   UNL     1      53.043  50.950  42.575  0.00  0.00    +0.000 A 
ATOM     37  C   UNL     1      54.383  51.321  42.741  0.00  0.00    +0.000 A 
ATOM     38  C   UNL     1      52.367  50.338  43.640  0.00  0.00    +0.000 A 
ATOM     39  C   UNL     1      53.033  50.121  44.841  0.00  0.00    +0.000 A 
ATOM     40  C   UNL     1      55.051  51.100  43.938  0.00  0.00    +0.000 A 
ATOM     41  C   UNL     1      54.364  50.500  44.985  0.00  0.00    +0.000 A 
ENDBRANCH  32  36
ENDBRANCH  28  32
ENDBRANCH  27  28
ENDBRANCH  10  27
TORSDOF 9
ENDMDL
MODEL 4
REMARK VINA RESULT:      -8.8     23.760     26.758
REMARK  Name = 24776808
REMARK  9 active torsions:
REMARK  status: ('A' for Active; 'I' for Inactive)
REMARK    1  A    between atoms: N_15  and  C_25
REMARK    2  A    between atoms: C_16  and  C_20
REMARK    3  A    between atoms: C_20  and  C_24
REMARK    4  A    between atoms: C_21  and  C_22
REMARK    5  A    between atoms: C_22  and  C_25
REMARK    6  A    between atoms: C_23  and  C_28
REMARK    7  A    between atoms: C_25  and  C_26
REMARK    8  A    between atoms: C_26  and  C_30
REMARK    9  A    between atoms: C_27  and  C_32
REMARK                            x       y       z     vdW  Elec       q    Type
REMARK                         _______ _______ _______ _____ _____    ______ ____
ROOT
ATOM      1  O   UNL     1      52.903  71.086  40.040  0.00  0.00    +0.000 OA
ATOM      2  N   UNL     1      54.859  70.518  38.971  0.00  0.00    +0.000 N 
ATOM      3  N   UNL     1      57.658  70.330  38.787  0.00  0.00    +0.000 N 
ATOM      4  N   UNL     1      58.124  72.017  40.065  0.00  0.00    +0.000 NA
ATOM      5  N   UNL     1      59.305  71.445  39.647  0.00  0.00    +0.000 NA
ATOM      6  C   UNL     1      55.644  71.442  39.872  0.00  0.00    +0.000 C 
ATOM      7  C   UNL     1      55.508  70.160  37.699  0.00  0.00    +0.000 C 
ATOM      8  C   UNL     1      57.129  71.283  39.613  0.00  0.00    +0.000 A 
ATOM      9  C   UNL     1      56.858  69.502  37.925  0.00  0.00    +0.000 C 
ATOM     10  C   UNL     1      53.471  70.504  39.113  0.00  0.00    +0.000 C 
ATOM     11  C   UNL     1      59.018  70.386  38.914  0.00  0.00    +0.000 A 
ENDROOT
BRANCH  11  15
ATOM     12  F   UNL     1      59.854  69.336  36.969  0.00  0.00    +0.000 F 
ATOM     13  F   UNL     1      59.727  68.136  38.773  0.00  0.00    +0.000 F 
ATOM     14  F   UNL     1      61.255  69.691  38.593  0.00  0.00    +0.000 F 
ATOM     15  C   UNL     1      59.958  69.396  38.327  0.00  0.00    +0.000 C 
ENDBRANCH  11  15
BRANCH   6  16
ATOM     16  C   UNL     1      55.351  71.243  41.397  0.00  0.00    +0.000 C 
BRANCH  16  17
ATOM     17  C   UNL     1      56.116  70.143  42.119  0.00  0.00    +0.000 A 
ATOM     18  C   UNL     1      57.005  70.364  43.197  0.00  0.00    +0.000 A 
ATOM     19  C   UNL     1      55.894  68.819  41.688  0.00  0.00    +0.000 A 
ATOM     20  C   UNL     1      57.745  69.271  43.700  0.00  0.00    +0.000 A 
ATOM     21  C   UNL     1      56.596  67.748  42.239  0.00  0.00    +0.000 A 
ATOM     22  C   UNL     1      57.547  67.977  43.221  0.00  0.00    +0.000 A 
BRANCH  18  26
ATOM     23  F   UNL     1      56.087  72.369  44.213  0.00  0.00    +0.000 F 
ATOM     24  F   UNL     1      57.884  71.541  45.082  0.00  0.00    +0.000 F 
ATOM     25  F   UNL     1      57.974  72.554  43.164  0.00  0.00    +0.000 F 
ATOM     26  C   UNL     1      57.220  71.689  43.898  0.00  0.00    +0.000 C 
ENDBRANCH  18  26
ENDBRANCH  16  17
ENDBRANCH   6  16
BRANCH  10  27
ATOM     27  C   UNL     1      52.616  69.709  38.131  0.00  0.00    +0.000 C 
BRANCH  27  28
ATOM     28  C   UNL     1      51.766  70.681  37.294  0.00  0.00    +0.000 C 
BRANCH  28  29
ATOM     29  N   UNL     1      52.216  72.057  37.569  0.00  0.00    +0.000 NA
ATOM     30  H   UNL     1      51.659  72.723  37.031  0.00  0.00    +0.000 HD
ATOM     31  H   UNL     1      53.168  72.168  37.215  0.00  0.00    +0.000 HD
ENDBRANCH  28  29
BRANCH  28  32
ATOM     32  C   UNL     1      50.269  70.472  37.642  0.00  0.00    +0.000 C 
BRANCH  32  36
ATOM     33  F   UNL     1      50.136  69.545  40.308  0.00  0.00    +0.000 F 
ATOM     34  F   UNL     1      48.257  74.573  39.365  0.00  0.00    +0.000 F 
ATOM     35  F   UNL     1      48.140  73.497  41.880  0.00  0.00    +0.000 F 
ATOM     36  C   UNL     1      49.749  71.312  38.774  0.00  0.00    +0.000 A 
ATOM     37  C   UNL     1      49.680  70.782  40.068  0.00  0.00    +0.000 A 
ATOM     38  C   UNL     1      49.258  72.605  38.539  0.00  0.00    +0.000 A 
ATOM     39  C   UNL     1      48.724  73.337  39.593  0.00  0.00    +0.000 A 
ATOM     40  C   UNL     1      49.142  71.511  41.120  0.00  0.00    +0.000 A 
ATOM     41  C   UNL     1      48.667  72.792  40.872  0.00  0.00    +0.000 A 
ENDBRANCH  32  36
ENDBRANCH  28  32
ENDBRANCH  27  28
ENDBRANCH  10  27
TORSDOF 9
ENDMDL
MODEL 5
REMARK VINA RESULT:      -8.4     22.979     26.019
REMARK  Name = 24776808
REMARK  9 active torsions:
REMARK  status: ('A' for Active; 'I' for Inactive)
REMARK    1  A    between atoms: N_15  and  C_25
REMARK    2  A    between atoms: C_16  and  C_20
REMARK    3  A    between atoms: C_20  and  C_24
REMARK    4  A    between atoms: C_21  and  C_22
REMARK    5  A    between atoms: C_22  and  C_25
REMARK    6  A    between atoms: C_23  and  C_28
REMARK    7  A    between atoms: C_25  and  C_26
REMARK    8  A    between atoms: C_26  and  C_30
REMARK    9  A    between atoms: C_27  and  C_32
REMARK                            x       y       z     vdW  Elec       q    Type
REMARK                         _______ _______ _______ _____ _____    ______ ____
ROOT
ATOM      1  O   UNL     1      55.866  70.584  37.959  0.00  0.00    +0.000 OA
ATOM      2  N   UNL     1      54.846  69.160  39.451  0.00  0.00    +0.000 N 
ATOM      3  N   UNL     1      54.476  68.041  42.002  0.00  0.00    +0.000 N 
ATOM      4  N   UNL     1      56.500  68.333  42.719  0.00  0.00    +0.000 NA
ATOM      5  N   UNL     1      55.760  67.752  43.724  0.00  0.00    +0.000 NA
ATOM      6  C   UNL     1      56.007  69.297  40.407  0.00  0.00    +0.000 C 
ATOM      7  C   UNL     1      54.000  67.970  39.635  0.00  0.00    +0.000 C 
ATOM      8  C   UNL     1      55.695  68.587  41.709  0.00  0.00    +0.000 A 
ATOM      9  C   UNL     1      53.418  67.907  41.037  0.00  0.00    +0.000 C 
ATOM     10  C   UNL     1      54.949  69.799  38.215  0.00  0.00    +0.000 C 
ATOM     11  C   UNL     1      54.515  67.625  43.304  0.00  0.00    +0.000 A 
ENDROOT
BRANCH  11  15
ATOM     12  F   UNL     1      52.748  66.066  43.477  0.00  0.00    +0.000 F 
ATOM     13  F   UNL     1      52.365  68.088  44.168  0.00  0.00    +0.000 F 
ATOM     14  F   UNL     1      53.656  66.756  45.328  0.00  0.00    +0.000 F 
ATOM     15  C   UNL     1      53.335  67.145  44.069  0.00  0.00    +0.000 C 
ENDBRANCH  11  15
BRANCH   6  16
ATOM     16  C   UNL     1      56.420  70.779  40.701  0.00  0.00    +0.000 C 
BRANCH  16  17
ATOM     17  C   UNL     1      57.898  71.062  40.922  0.00  0.00    +0.000 A 
ATOM     18  C   UNL     1      58.417  71.779  42.026  0.00  0.00    +0.000 A 
ATOM     19  C   UNL     1      58.800  70.549  39.967  0.00  0.00    +0.000 A 
ATOM     20  C   UNL     1      59.797  72.079  42.051  0.00  0.00    +0.000 A 
ATOM     21  C   UNL     1      60.166  70.811  40.043  0.00  0.00    +0.000 A 
ATOM     22  C   UNL     1      60.662  71.606  41.066  0.00  0.00    +0.000 A 
BRANCH  18  26
ATOM     23  F   UNL     1      56.371  72.705  42.949  0.00  0.00    +0.000 F 
ATOM     24  F   UNL     1      57.425  71.235  44.131  0.00  0.00    +0.000 F 
ATOM     25  F   UNL     1      58.235  73.239  43.917  0.00  0.00    +0.000 F 
ATOM     26  C   UNL     1      57.616  72.240  43.226  0.00  0.00    +0.000 C 
ENDBRANCH  18  26
ENDBRANCH  16  17
ENDBRANCH   6  16
BRANCH  10  27
ATOM     27  C   UNL     1      53.879  69.573  37.151  0.00  0.00    +0.000 C 
BRANCH  27  28
ATOM     28  C   UNL     1      52.961  70.807  37.083  0.00  0.00    +0.000 C 
BRANCH  28  29
ATOM     29  N   UNL     1      53.785  71.991  36.781  0.00  0.00    +0.000 NA
ATOM     30  H   UNL     1      54.686  71.923  37.256  0.00  0.00    +0.000 HD
ATOM     31  H   UNL     1      53.336  72.814  37.187  0.00  0.00    +0.000 HD
ENDBRANCH  28  29
BRANCH  28  32
ATOM     32  C   UNL     1      52.202  70.947  38.427  0.00  0.00    +0.000 C 
BRANCH  32  36
ATOM     33  F   UNL     1      50.255  69.009  37.763  0.00  0.00    +0.000 F 
ATOM     34  F   UNL     1      48.485  74.112  38.484  0.00  0.00    +0.000 F 
ATOM     35  F   UNL     1      46.740  72.126  37.771  0.00  0.00    +0.000 F 
ATOM     36  C   UNL     1      50.738  71.266  38.310  0.00  0.00    +0.000 A 
ATOM     37  C   UNL     1      49.827  70.265  37.947  0.00  0.00    +0.000 A 
ATOM     38  C   UNL     1      50.275  72.578  38.488  0.00  0.00    +0.000 A 
ATOM     39  C   UNL     1      48.925  72.858  38.312  0.00  0.00    +0.000 A 
ATOM     40  C   UNL     1      48.481  70.546  37.765  0.00  0.00    +0.000 A 
ATOM     41  C   UNL     1      48.037  71.848  37.952  0.00  0.00    +0.000 A 
ENDBRANCH  32  36
ENDBRANCH  28  32
ENDBRANCH  27  28
ENDBRANCH  10  27
TORSDOF 9
ENDMDL
MODEL 6
REMARK VINA RESULT:      -8.3     10.445     14.650
REMARK  Name = 24776808
REMARK  9 active torsions:
REMARK  status: ('A' for Active; 'I' for Inactive)
REMARK    1  A    between atoms: N_15  and  C_25
REMARK    2  A    between atoms: C_16  and  C_20
REMARK    3  A    between atoms: C_20  and  C_24
REMARK    4  A    between atoms: C_21  and  C_22
REMARK    5  A    between atoms: C_22  and  C_25
REMARK    6  A    between atoms: C_23  and  C_28
REMARK    7  A    between atoms: C_25  and  C_26
REMARK    8  A    between atoms: C_26  and  C_30
REMARK    9  A    between atoms: C_27  and  C_32
REMARK                            x       y       z     vdW  Elec       q    Type
REMARK                         _______ _______ _______ _____ _____    ______ ____
ROOT
ATOM      1  O   UNL     1      48.738  50.959  39.591  0.00  0.00    +0.000 OA
ATOM      2  N   UNL     1      50.314  49.805  38.375  0.00  0.00    +0.000 N 
ATOM      3  N   UNL     1      51.494  48.936  35.976  0.00  0.00    +0.000 N 
ATOM      4  N   UNL     1      49.702  48.993  34.760  0.00  0.00    +0.000 NA
ATOM      5  N   UNL     1      50.756  48.596  33.967  0.00  0.00    +0.000 NA
ATOM      6  C   UNL     1      49.430  49.846  37.151  0.00  0.00    +0.000 C 
ATOM      7  C   UNL     1      51.351  48.761  38.382  0.00  0.00    +0.000 C 
ATOM      8  C   UNL     1      50.172  49.283  35.954  0.00  0.00    +0.000 A 
ATOM      9  C   UNL     1      52.276  48.882  37.182  0.00  0.00    +0.000 C 
ATOM     10  C   UNL     1      49.800  50.331  39.560  0.00  0.00    +0.000 C 
ATOM     11  C   UNL     1      51.855  48.615  34.698  0.00  0.00    +0.000 A 
ENDROOT
BRANCH  11  15
ATOM     12  F   UNL     1      53.859  47.403  35.013  0.00  0.00    +0.000 F 
ATOM     13  F   UNL     1      54.034  49.465  34.357  0.00  0.00    +0.000 F 
ATOM     14  F   UNL     1      53.320  47.928  32.974  0.00  0.00    +0.000 F 
ATOM     15  C   UNL     1      53.251  48.362  34.257  0.00  0.00    +0.000 C 
ENDBRANCH  11  15
BRANCH   6  16
ATOM     16  C   UNL     1      48.884  51.273  36.808  0.00  0.00    +0.000 C 
BRANCH  16  17
ATOM     17  C   UNL     1      47.437  51.376  36.349  0.00  0.00    +0.000 A 
ATOM     18  C   UNL     1      47.026  51.973  35.133  0.00  0.00    +0.000 A 
ATOM     19  C   UNL     1      46.455  50.814  37.191  0.00  0.00    +0.000 A 
ATOM     20  C   UNL     1      45.643  52.113  34.882  0.00  0.00    +0.000 A 
ATOM     21  C   UNL     1      45.098  50.916  36.893  0.00  0.00    +0.000 A 
ATOM     22  C   UNL     1      44.689  51.596  35.756  0.00  0.00    +0.000 A 
BRANCH  18  26
ATOM     23  F   UNL     1      48.989  51.631  33.747  0.00  0.00    +0.000 F 
ATOM     24  F   UNL     1      47.297  52.634  32.853  0.00  0.00    +0.000 F 
ATOM     25  F   UNL     1      48.515  53.665  34.325  0.00  0.00    +0.000 F 
ATOM     26  C   UNL     1      47.952  52.458  34.038  0.00  0.00    +0.000 C 
ENDBRANCH  18  26
ENDBRANCH  16  17
ENDBRANCH   6  16
BRANCH  10  27
ATOM     27  C   UNL     1      50.582  50.181  40.861  0.00  0.00    +0.000 C 
BRANCH  27  28
ATOM     28  C   UNL     1      51.595  51.333  40.982  0.00  0.00    +0.000 C 
BRANCH  28  29
ATOM     29  N   UNL     1      51.415  52.241  39.836  0.00  0.00    +0.000 NA
ATOM     30  H   UNL     1      51.664  51.765  38.967  0.00  0.00    +0.000 HD
ATOM     31  H   UNL     1      52.087  53.007  39.916  0.00  0.00    +0.000 HD
ENDBRANCH  28  29
BRANCH  28  32
ATOM     32  C   UNL     1      53.027  50.743  41.045  0.00  0.00    +0.000 C 
BRANCH  32  36
ATOM     33  F   UNL     1      53.882  52.959  42.576  0.00  0.00    +0.000 F 
ATOM     34  F   UNL     1      56.323  52.222  37.761  0.00  0.00    +0.000 F 
ATOM     35  F   UNL     1      56.985  54.359  39.339  0.00  0.00    +0.000 F 
ATOM     36  C   UNL     1      54.125  51.669  40.601  0.00  0.00    +0.000 A 
ATOM     37  C   UNL     1      54.480  52.768  41.393  0.00  0.00    +0.000 A 
ATOM     38  C   UNL     1      54.754  51.489  39.361  0.00  0.00    +0.000 A 
ATOM     39  C   UNL     1      55.723  52.396  38.946  0.00  0.00    +0.000 A 
ATOM     40  C   UNL     1      55.443  53.677  40.977  0.00  0.00    +0.000 A 
ATOM     41  C   UNL     1      56.062  53.481  39.750  0.00  0.00    +0.000 A 
ENDBRANCH  32  36
ENDBRANCH  28  32
ENDBRANCH  27  28
ENDBRANCH  10  27
TORSDOF 9
ENDMDL
MODEL 7
REMARK VINA RESULT:      -8.2      7.975     10.602
REMARK  Name = 24776808
REMARK  9 active torsions:
REMARK  status: ('A' for Active; 'I' for Inactive)
REMARK    1  A    between atoms: N_15  and  C_25
REMARK    2  A    between atoms: C_16  and  C_20
REMARK    3  A    between atoms: C_20  and  C_24
REMARK    4  A    between atoms: C_21  and  C_22
REMARK    5  A    between atoms: C_22  and  C_25
REMARK    6  A    between atoms: C_23  and  C_28
REMARK    7  A    between atoms: C_25  and  C_26
REMARK    8  A    between atoms: C_26  and  C_30
REMARK    9  A    between atoms: C_27  and  C_32
REMARK                            x       y       z     vdW  Elec       q    Type
REMARK                         _______ _______ _______ _____ _____    ______ ____
ROOT
ATOM      1  O   UNL     1      38.117  51.784  45.819  0.00  0.00    +0.000 OA
ATOM      2  N   UNL     1      36.768  51.498  47.661  0.00  0.00    +0.000 N 
ATOM      3  N   UNL     1      36.024  50.232  50.057  0.00  0.00    +0.000 N 
ATOM      4  N   UNL     1      36.860  48.285  49.601  0.00  0.00    +0.000 NA
ATOM      5  N   UNL     1      36.304  48.238  50.860  0.00  0.00    +0.000 NA
ATOM      6  C   UNL     1      37.306  50.102  47.864  0.00  0.00    +0.000 C 
ATOM      7  C   UNL     1      35.469  51.783  48.290  0.00  0.00    +0.000 C 
ATOM      8  C   UNL     1      36.766  49.519  49.155  0.00  0.00    +0.000 A 
ATOM      9  C   UNL     1      35.510  51.548  49.790  0.00  0.00    +0.000 C 
ATOM     10  C   UNL     1      37.205  52.201  46.537  0.00  0.00    +0.000 C 
ATOM     11  C   UNL     1      35.844  49.439  51.156  0.00  0.00    +0.000 A 
ENDROOT
BRANCH  11  15
ATOM     12  F   UNL     1      35.510  49.040  53.461  0.00  0.00    +0.000 F 
ATOM     13  F   UNL     1      33.899  50.007  52.373  0.00  0.00    +0.000 F 
ATOM     14  F   UNL     1      35.734  51.107  52.827  0.00  0.00    +0.000 F 
ATOM     15  C   UNL     1      35.250  49.902  52.436  0.00  0.00    +0.000 C 
ENDBRANCH  11  15
BRANCH   6  16
ATOM     16  C   UNL     1      38.870  50.015  47.861  0.00  0.00    +0.000 C 
BRANCH  16  17
ATOM     17  C   UNL     1      39.502  48.811  47.177  0.00  0.00    +0.000 A 
ATOM     18  C   UNL     1      40.531  48.022  47.742  0.00  0.00    +0.000 A 
ATOM     19  C   UNL     1      38.999  48.458  45.908  0.00  0.00    +0.000 A 
ATOM     20  C   UNL     1      41.116  47.007  46.953  0.00  0.00    +0.000 A 
ATOM     21  C   UNL     1      39.556  47.414  45.171  0.00  0.00    +0.000 A 
ATOM     22  C   UNL     1      40.638  46.710  45.679  0.00  0.00    +0.000 A 
BRANCH  18  26
ATOM     23  F   UNL     1      40.109  48.147  50.129  0.00  0.00    +0.000 F 
ATOM     24  F   UNL     1      41.902  47.128  49.483  0.00  0.00    +0.000 F 
ATOM     25  F   UNL     1      41.775  49.291  49.348  0.00  0.00    +0.000 F 
ATOM     26  C   UNL     1      41.056  48.149  49.156  0.00  0.00    +0.000 C 
ENDBRANCH  18  26
ENDBRANCH  16  17
ENDBRANCH   6  16
BRANCH  10  27
ATOM     27  C   UNL     1      36.583  53.552  46.196  0.00  0.00    +0.000 C 
BRANCH  27  28
ATOM     28  C   UNL     1      35.890  53.462  44.825  0.00  0.00    +0.000 C 
BRANCH  28  29
ATOM     29  N   UNL     1      36.806  53.990  43.798  0.00  0.00    +0.000 NA
ATOM     30  H   UNL     1      36.293  54.185  42.937  0.00  0.00    +0.000 HD
ATOM     31  H   UNL     1      37.473  53.258  43.546  0.00  0.00    +0.000 HD
ENDBRANCH  28  29
BRANCH  28  32
ATOM     32  C   UNL     1      34.554  54.248  44.882  0.00  0.00    +0.000 C 
BRANCH  32  36
ATOM     33  F   UNL     1      35.608  56.869  44.944  0.00  0.00    +0.000 F 
ATOM     34  F   UNL     1      33.036  55.157  49.432  0.00  0.00    +0.000 F 
ATOM     35  F   UNL     1      34.173  57.645  49.349  0.00  0.00    +0.000 F 
ATOM     36  C   UNL     1      34.397  55.164  46.062  0.00  0.00    +0.000 A 
ATOM     37  C   UNL     1      34.970  56.442  46.041  0.00  0.00    +0.000 A 
ATOM     38  C   UNL     1      33.741  54.729  47.223  0.00  0.00    +0.000 A 
ATOM     39  C   UNL     1      33.664  55.574  48.324  0.00  0.00    +0.000 A 
ATOM     40  C   UNL     1      34.899  57.284  47.142  0.00  0.00    +0.000 A 
ATOM     41  C   UNL     1      34.239  56.841  48.281  0.00  0.00    +0.000 A 
ENDBRANCH  32  36
ENDBRANCH  28  32
ENDBRANCH  27  28
ENDBRANCH  10  27
TORSDOF 9
ENDMDL
MODEL 8
REMARK VINA RESULT:      -8.0      6.137     11.308
REMARK  Name = 24776808
REMARK  9 active torsions:
REMARK  status: ('A' for Active; 'I' for Inactive)
REMARK    1  A    between atoms: N_15  and  C_25
REMARK    2  A    between atoms: C_16  and  C_20
REMARK    3  A    between atoms: C_20  and  C_24
REMARK    4  A    between atoms: C_21  and  C_22
REMARK    5  A    between atoms: C_22  and  C_25
REMARK    6  A    between atoms: C_23  and  C_28
REMARK    7  A    between atoms: C_25  and  C_26
REMARK    8  A    between atoms: C_26  and  C_30
REMARK    9  A    between atoms: C_27  and  C_32
REMARK                            x       y       z     vdW  Elec       q    Type
REMARK                         _______ _______ _______ _____ _____    ______ ____
ROOT
ATOM      1  O   UNL     1      37.118  49.771  44.976  0.00  0.00    +0.000 OA
ATOM      2  N   UNL     1      37.084  49.664  47.274  0.00  0.00    +0.000 N 
ATOM      3  N   UNL     1      36.187  50.470  49.813  0.00  0.00    +0.000 N 
ATOM      4  N   UNL     1      35.694  52.514  49.287  0.00  0.00    +0.000 NA
ATOM      5  N   UNL     1      35.386  52.318  50.614  0.00  0.00    +0.000 NA
ATOM      6  C   UNL     1      36.464  51.039  47.350  0.00  0.00    +0.000 C 
ATOM      7  C   UNL     1      37.762  49.199  48.495  0.00  0.00    +0.000 C 
ATOM      8  C   UNL     1      36.096  51.366  48.783  0.00  0.00    +0.000 A 
ATOM      9  C   UNL     1      36.822  49.186  49.688  0.00  0.00    +0.000 C 
ATOM     10  C   UNL     1      37.440  49.185  46.013  0.00  0.00    +0.000 C 
ATOM     11  C   UNL     1      35.636  51.058  50.917  0.00  0.00    +0.000 A 
ENDROOT
BRANCH  11  15
ATOM     12  F   UNL     1      35.150  51.226  53.224  0.00  0.00    +0.000 F 
ATOM     13  F   UNL     1      36.409  49.576  52.588  0.00  0.00    +0.000 F 
ATOM     14  F   UNL     1      34.269  49.563  52.136  0.00  0.00    +0.000 F 
ATOM     15  C   UNL     1      35.369  50.354  52.198  0.00  0.00    +0.000 C 
ENDBRANCH  11  15
BRANCH   6  16
ATOM     16  C   UNL     1      35.210  51.223  46.430  0.00  0.00    +0.000 C 
BRANCH  16  17
ATOM     17  C   UNL     1      34.864  52.640  45.994  0.00  0.00    +0.000 A 
ATOM     18  C   UNL     1      35.057  53.142  44.686  0.00  0.00    +0.000 A 
ATOM     19  C   UNL     1      34.292  53.488  46.965  0.00  0.00    +0.000 A 
ATOM     20  C   UNL     1      34.809  54.511  44.442  0.00  0.00    +0.000 A 
ATOM     21  C   UNL     1      34.003  54.822  46.685  0.00  0.00    +0.000 A 
ATOM     22  C   UNL     1      34.293  55.344  45.433  0.00  0.00    +0.000 A 
BRANCH  18  26
ATOM     23  F   UNL     1      36.828  52.188  43.327  0.00  0.00    +0.000 F 
ATOM     24  F   UNL     1      35.007  51.045  43.542  0.00  0.00    +0.000 F 
ATOM     25  F   UNL     1      35.026  52.834  42.311  0.00  0.00    +0.000 F 
ATOM     26  C   UNL     1      35.486  52.322  43.487  0.00  0.00    +0.000 C 
ENDBRANCH  18  26
ENDBRANCH  16  17
ENDBRANCH   6  16
BRANCH  10  27
ATOM     27  C   UNL     1      38.208  47.873  45.887  0.00  0.00    +0.000 C 
BRANCH  27  28
ATOM     28  C   UNL     1      39.618  48.158  45.341  0.00  0.00    +0.000 C 
BRANCH  28  29
ATOM     29  N   UNL     1      39.498  48.633  43.951  0.00  0.00    +0.000 NA
ATOM     30  H   UNL     1      40.406  48.951  43.608  0.00  0.00    +0.000 HD
ATOM     31  H   UNL     1      38.908  49.467  43.940  0.00  0.00    +0.000 HD
ENDBRANCH  28  29
BRANCH  28  32
ATOM     32  C   UNL     1      40.472  46.868  45.449  0.00  0.00    +0.000 C 
BRANCH  32  36
ATOM     33  F   UNL     1      42.273  48.025  47.294  0.00  0.00    +0.000 F 
ATOM     34  F   UNL     1      44.328  46.529  42.474  0.00  0.00    +0.000 F 
ATOM     35  F   UNL     1      45.922  47.726  44.350  0.00  0.00    +0.000 F 
ATOM     36  C   UNL     1      41.937  47.041  45.162  0.00  0.00    +0.000 A 
ATOM     37  C   UNL     1      42.771  47.650  46.108  0.00  0.00    +0.000 A 
ATOM     38  C   UNL     1      42.473  46.663  43.922  0.00  0.00    +0.000 A 
ATOM     39  C   UNL     1      43.818  46.891  43.659  0.00  0.00    +0.000 A 
ATOM     40  C   UNL     1      44.113  47.884  45.844  0.00  0.00    +0.000 A 
ATOM     41  C   UNL     1      44.630  47.497  44.614  0.00  0.00    +0.000 A 
ENDBRANCH  32  36
ENDBRANCH  28  32
ENDBRANCH  27  28
ENDBRANCH  10  27
TORSDOF 9
ENDMDL
MODEL 9
REMARK VINA RESULT:      -7.9      8.899     13.691
REMARK  Name = 24776808
REMARK  9 active torsions:
REMARK  status: ('A' for Active; 'I' for Inactive)
REMARK    1  A    between atoms: N_15  and  C_25
REMARK    2  A    between atoms: C_16  and  C_20
REMARK    3  A    between atoms: C_20  and  C_24
REMARK    4  A    between atoms: C_21  and  C_22
REMARK    5  A    between atoms: C_22  and  C_25
REMARK    6  A    between atoms: C_23  and  C_28
REMARK    7  A    between atoms: C_25  and  C_26
REMARK    8  A    between atoms: C_26  and  C_30
REMARK    9  A    between atoms: C_27  and  C_32
REMARK                            x       y       z     vdW  Elec       q    Type
REMARK                         _______ _______ _______ _____ _____    ______ ____
ROOT
ATOM      1  O   UNL     1      50.410  54.453  36.943  0.00  0.00    +0.000 OA
ATOM      2  N   UNL     1      51.180  52.654  35.734  0.00  0.00    +0.000 N 
ATOM      3  N   UNL     1      52.944  50.518  35.258  0.00  0.00    +0.000 N 
ATOM      4  N   UNL     1      54.666  51.362  36.266  0.00  0.00    +0.000 NA
ATOM      5  N   UNL     1      55.007  50.118  35.787  0.00  0.00    +0.000 NA
ATOM      6  C   UNL     1      52.521  52.738  36.424  0.00  0.00    +0.000 C 
ATOM      7  C   UNL     1      51.165  51.938  34.448  0.00  0.00    +0.000 C 
ATOM      8  C   UNL     1      53.389  51.563  36.020  0.00  0.00    +0.000 A 
ATOM      9  C   UNL     1      51.667  50.512  34.596  0.00  0.00    +0.000 C 
ATOM     10  C   UNL     1      50.238  53.638  36.033  0.00  0.00    +0.000 C 
ATOM     11  C   UNL     1      53.941  49.583  35.222  0.00  0.00    +0.000 A 
ENDROOT
BRANCH  11  15
ATOM     12  F   UNL     1      54.960  47.515  34.704  0.00  0.00    +0.000 F 
ATOM     13  F   UNL     1      53.426  48.238  33.348  0.00  0.00    +0.000 F 
ATOM     14  F   UNL     1      52.877  47.475  35.323  0.00  0.00    +0.000 F 
ATOM     15  C   UNL     1      53.792  48.218  34.654  0.00  0.00    +0.000 C 
ENDBRANCH  11  15
BRANCH   6  16
ATOM     16  C   UNL     1      52.430  52.811  37.986  0.00  0.00    +0.000 C 
BRANCH  16  17
ATOM     17  C   UNL     1      52.102  51.524  38.729  0.00  0.00    +0.000 A 
ATOM     18  C   UNL     1      52.976  50.882  39.638  0.00  0.00    +0.000 A 
ATOM     19  C   UNL     1      50.829  50.960  38.504  0.00  0.00    +0.000 A 
ATOM     20  C   UNL     1      52.600  49.628  40.167  0.00  0.00    +0.000 A 
ATOM     21  C   UNL     1      50.458  49.748  39.084  0.00  0.00    +0.000 A 
ATOM     22  C   UNL     1      51.357  49.064  39.888  0.00  0.00    +0.000 A 
BRANCH  18  26
ATOM     23  F   UNL     1      54.248  52.720  40.585  0.00  0.00    +0.000 F 
ATOM     24  F   UNL     1      54.806  50.715  41.165  0.00  0.00    +0.000 F 
ATOM     25  F   UNL     1      55.259  51.431  39.166  0.00  0.00    +0.000 F 
ATOM     26  C   UNL     1      54.294  51.442  40.129  0.00  0.00    +0.000 C 
ENDBRANCH  18  26
ENDBRANCH  16  17
ENDBRANCH   6  16
BRANCH  10  27
ATOM     27  C   UNL     1      48.926  53.695  35.256  0.00  0.00    +0.000 C 
BRANCH  27  28
ATOM     28  C   UNL     1      47.786  53.163  36.143  0.00  0.00    +0.000 C 
BRANCH  28  29
ATOM     29  N   UNL     1      48.293  53.004  37.518  0.00  0.00    +0.000 NA
ATOM     30  H   UNL     1      49.178  52.494  37.509  0.00  0.00    +0.000 HD
ATOM     31  H   UNL     1      47.650  52.403  38.036  0.00  0.00    +0.000 HD
ENDBRANCH  28  29
BRANCH  28  32
ATOM     32  C   UNL     1      47.267  51.828  35.550  0.00  0.00    +0.000 C 
BRANCH  32  36
ATOM     33  F   UNL     1      45.905  50.752  37.781  0.00  0.00    +0.000 F 
ATOM     34  F   UNL     1      42.867  52.044  33.445  0.00  0.00    +0.000 F 
ATOM     35  F   UNL     1      41.714  50.929  35.664  0.00  0.00    +0.000 F 
ATOM     36  C   UNL     1      45.775  51.645  35.587  0.00  0.00    +0.000 A 
ATOM     37  C   UNL     1      45.165  51.076  36.712  0.00  0.00    +0.000 A 
ATOM     38  C   UNL     1      44.987  51.969  34.473  0.00  0.00    +0.000 A 
ATOM     39  C   UNL     1      43.618  51.731  34.510  0.00  0.00    +0.000 A 
ATOM     40  C   UNL     1      43.799  50.834  36.747  0.00  0.00    +0.000 A 
ATOM     41  C   UNL     1      43.031  51.168  35.639  0.00  0.00    +0.000 A 
ENDBRANCH  32  36
ENDBRANCH  28  32
ENDBRANCH  27  28
ENDBRANCH  10  27
TORSDOF 9
ENDMDL
