MODEL 1
REMARK VINA RESULT:      -7.9      0.000      0.000
REMARK  Name = 20628250
REMARK  6 active torsions:
REMARK  status: ('A' for Active; 'I' for Inactive)
REMARK    1  A    between atoms: N_10  and  C_17
REMARK    2  A    between atoms: C_16  and  C_17
REMARK    3  A    between atoms: C_16  and  C_18
REMARK    4  A    between atoms: C_17  and  C_19
REMARK    5  A    between atoms: C_19  and  C_21
REMARK    6  A    between atoms: C_20  and  C_22
REMARK                            x       y       z     vdW  Elec       q    Type
REMARK                         _______ _______ _______ _____ _____    ______ ____
ROOT
ATOM      1  O   UNL     1      28.180  63.031  39.322  0.00  0.00    +0.000 OA
ATOM      2  N   UNL     1      29.588  64.412  40.471  0.00  0.00    +0.000 N 
ATOM      3  N   UNL     1      31.315  64.163  42.623  0.00  0.00    +0.000 N 
ATOM      4  N   UNL     1      29.829  63.387  44.020  0.00  0.00    +0.000 NA
ATOM      5  N   UNL     1      31.052  63.397  44.643  0.00  0.00    +0.000 NA
ATOM      6  C   UNL     1      30.720  65.337  40.567  0.00  0.00    +0.000 C 
ATOM      7  C   UNL     1      31.841  64.696  41.382  0.00  0.00    +0.000 C 
ATOM      8  C   UNL     1      28.954  64.047  41.745  0.00  0.00    +0.000 C 
ATOM      9  C   UNL     1      29.992  63.841  42.798  0.00  0.00    +0.000 A 
ATOM     10  C   UNL     1      29.103  63.844  39.302  0.00  0.00    +0.000 C 
ATOM     11  C   UNL     1      31.956  63.866  43.796  0.00  0.00    +0.000 A 
ENDROOT
BRANCH  11  15
ATOM     12  F   UNL     1      33.741  63.801  45.353  0.00  0.00    +0.000 F 
ATOM     13  F   UNL     1      33.826  65.314  43.800  0.00  0.00    +0.000 F 
ATOM     14  F   UNL     1      34.170  63.213  43.307  0.00  0.00    +0.000 F 
ATOM     15  C   UNL     1      33.408  64.049  44.057  0.00  0.00    +0.000 C 
ENDBRANCH  11  15
BRANCH  10  16
ATOM     16  C   UNL     1      29.775  64.259  38.003  0.00  0.00    +0.000 C 
BRANCH  16  17
ATOM     17  C   UNL     1      28.815  64.345  36.807  0.00  0.00    +0.000 C 
BRANCH  17  18
ATOM     18  N   UNL     1      28.771  63.003  36.180  0.00  0.00    +0.000 NA
ATOM     19  H   UNL     1      28.298  63.067  35.277  0.00  0.00    +0.000 HD
ATOM     20  H   UNL     1      28.178  62.394  36.743  0.00  0.00    +0.000 HD
ENDBRANCH  17  18
BRANCH  17  21
ATOM     21  C   UNL     1      29.256  65.414  35.774  0.00  0.00    +0.000 C 
BRANCH  21  24
ATOM     22  F   UNL     1      29.695  67.506  37.674  0.00  0.00    +0.000 F 
ATOM     23  F   UNL     1      25.651  68.259  34.112  0.00  0.00    +0.000 F 
ATOM     24  C   UNL     1      28.442  66.688  35.827  0.00  0.00    +0.000 A 
ATOM     25  C   UNL     1      28.702  67.671  36.790  0.00  0.00    +0.000 A 
ATOM     26  C   UNL     1      27.409  66.906  34.910  0.00  0.00    +0.000 A 
ATOM     27  C   UNL     1      26.646  68.067  34.986  0.00  0.00    +0.000 A 
ATOM     28  C   UNL     1      27.933  68.832  36.867  0.00  0.00    +0.000 A 
ATOM     29  C   UNL     1      26.893  69.029  35.961  0.00  0.00    +0.000 A 
ENDBRANCH  21  24
ENDBRANCH  17  21
ENDBRANCH  16  17
ENDBRANCH  10  16
TORSDOF 6
ENDMDL
MODEL 2
REMARK VINA RESULT:      -7.6     22.568     25.426
REMARK  Name = 20628250
REMARK  6 active torsions:
REMARK  status: ('A' for Active; 'I' for Inactive)
REMARK    1  A    between atoms: N_10  and  C_17
REMARK    2  A    between atoms: C_16  and  C_17
REMARK    3  A    between atoms: C_16  and  C_18
REMARK    4  A    between atoms: C_17  and  C_19
REMARK    5  A    between atoms: C_19  and  C_21
REMARK    6  A    between atoms: C_20  and  C_22
REMARK                            x       y       z     vdW  Elec       q    Type
REMARK                         _______ _______ _______ _____ _____    ______ ____
ROOT
ATOM      1  O   UNL     1      53.976  70.752  42.806  0.00  0.00    +0.000 OA
ATOM      2  N   UNL     1      52.563  70.223  41.093  0.00  0.00    +0.000 N 
ATOM      3  N   UNL     1      50.290  71.332  39.962  0.00  0.00    +0.000 N 
ATOM      4  N   UNL     1      49.128  71.404  41.808  0.00  0.00    +0.000 NA
ATOM      5  N   UNL     1      48.392  71.983  40.804  0.00  0.00    +0.000 NA
ATOM      6  C   UNL     1      52.266  69.924  39.689  0.00  0.00    +0.000 C 
ATOM      7  C   UNL     1      51.415  71.044  39.094  0.00  0.00    +0.000 C 
ATOM      8  C   UNL     1      51.399  70.314  41.985  0.00  0.00    +0.000 C 
ATOM      9  C   UNL     1      50.277  71.020  41.299  0.00  0.00    +0.000 A 
ATOM     10  C   UNL     1      53.824  70.452  41.623  0.00  0.00    +0.000 C 
ATOM     11  C   UNL     1      49.097  71.942  39.683  0.00  0.00    +0.000 A 
ENDROOT
BRANCH  11  15
ATOM     12  F   UNL     1      49.613  73.272  37.791  0.00  0.00    +0.000 F 
ATOM     13  F   UNL     1      47.537  73.184  38.413  0.00  0.00    +0.000 F 
ATOM     14  F   UNL     1      48.471  71.454  37.461  0.00  0.00    +0.000 F 
ATOM     15  C   UNL     1      48.679  72.456  38.353  0.00  0.00    +0.000 C 
ENDBRANCH  11  15
BRANCH  10  16
ATOM     16  C   UNL     1      55.004  70.332  40.672  0.00  0.00    +0.000 C 
BRANCH  16  17
ATOM     17  C   UNL     1      55.896  71.582  40.626  0.00  0.00    +0.000 C 
BRANCH  17  18
ATOM     18  N   UNL     1      55.278  72.597  41.510  0.00  0.00    +0.000 NA
ATOM     19  H   UNL     1      55.218  73.488  41.013  0.00  0.00    +0.000 HD
ATOM     20  H   UNL     1      55.903  72.778  42.295  0.00  0.00    +0.000 HD
ENDBRANCH  17  18
BRANCH  17  21
ATOM     21  C   UNL     1      56.056  72.138  39.187  0.00  0.00    +0.000 C 
BRANCH  21  24
ATOM     22  F   UNL     1      55.681  71.502  36.425  0.00  0.00    +0.000 F 
ATOM     23  F   UNL     1      60.338  69.840  38.696  0.00  0.00    +0.000 F 
ATOM     24  C   UNL     1      57.069  71.388  38.351  0.00  0.00    +0.000 A 
ATOM     25  C   UNL     1      56.820  71.099  37.003  0.00  0.00    +0.000 A 
ATOM     26  C   UNL     1      58.278  70.967  38.913  0.00  0.00    +0.000 A 
ATOM     27  C   UNL     1      59.190  70.250  38.143  0.00  0.00    +0.000 A 
ATOM     28  C   UNL     1      57.734  70.377  36.235  0.00  0.00    +0.000 A 
ATOM     29  C   UNL     1      58.926  69.945  36.812  0.00  0.00    +0.000 A 
ENDBRANCH  21  24
ENDBRANCH  17  21
ENDBRANCH  16  17
ENDBRANCH  10  16
TORSDOF 6
ENDMDL
MODEL 3
REMARK VINA RESULT:      -7.4     22.325     24.540
REMARK  Name = 20628250
REMARK  6 active torsions:
REMARK  status: ('A' for Active; 'I' for Inactive)
REMARK    1  A    between atoms: N_10  and  C_17
REMARK    2  A    between atoms: C_16  and  C_17
REMARK    3  A    between atoms: C_16  and  C_18
REMARK    4  A    between atoms: C_17  and  C_19
REMARK    5  A    between atoms: C_19  and  C_21
REMARK    6  A    between atoms: C_20  and  C_22
REMARK                            x       y       z     vdW  Elec       q    Type
REMARK                         _______ _______ _______ _____ _____    ______ ____
ROOT
ATOM      1  O   UNL     1      54.009  71.784  36.650  0.00  0.00    +0.000 OA
ATOM      2  N   UNL     1      54.397  70.783  38.665  0.00  0.00    +0.000 N 
ATOM      3  N   UNL     1      56.152  71.155  40.776  0.00  0.00    +0.000 N 
ATOM      4  N   UNL     1      57.975  71.020  39.583  0.00  0.00    +0.000 NA
ATOM      5  N   UNL     1      58.320  71.312  40.880  0.00  0.00    +0.000 NA
ATOM      6  C   UNL     1      53.991  70.329  39.997  0.00  0.00    +0.000 C 
ATOM      7  C   UNL     1      54.732  71.133  41.063  0.00  0.00    +0.000 C 
ATOM      8  C   UNL     1      55.818  70.607  38.337  0.00  0.00    +0.000 C 
ATOM      9  C   UNL     1      56.666  70.935  39.521  0.00  0.00    +0.000 A 
ATOM     10  C   UNL     1      53.569  71.382  37.726  0.00  0.00    +0.000 C 
ATOM     11  C   UNL     1      57.215  71.397  41.605  0.00  0.00    +0.000 A 
ENDROOT
BRANCH  11  15
ATOM     12  F   UNL     1      56.387  72.806  43.320  0.00  0.00    +0.000 F 
ATOM     13  F   UNL     1      58.342  71.913  43.617  0.00  0.00    +0.000 F 
ATOM     14  F   UNL     1      56.541  70.682  43.750  0.00  0.00    +0.000 F 
ATOM     15  C   UNL     1      57.126  71.693  43.058  0.00  0.00    +0.000 C 
ENDBRANCH  11  15
BRANCH  10  16
ATOM     16  C   UNL     1      52.102  71.531  38.095  0.00  0.00    +0.000 C 
BRANCH  16  17
ATOM     17  C   UNL     1      51.244  70.308  37.739  0.00  0.00    +0.000 C 
BRANCH  17  18
ATOM     18  N   UNL     1      51.658  69.856  36.391  0.00  0.00    +0.000 NA
ATOM     19  H   UNL     1      51.006  70.224  35.696  0.00  0.00    +0.000 HD
ATOM     20  H   UNL     1      51.555  68.843  36.335  0.00  0.00    +0.000 HD
ENDBRANCH  17  18
BRANCH  17  21
ATOM     21  C   UNL     1      49.726  70.627  37.765  0.00  0.00    +0.000 C 
BRANCH  21  24
ATOM     22  F   UNL     1      49.603  69.643  40.447  0.00  0.00    +0.000 F 
ATOM     23  F   UNL     1      48.157  74.834  39.686  0.00  0.00    +0.000 F 
ATOM     24  C   UNL     1      49.297  71.463  38.949  0.00  0.00    +0.000 A 
ATOM     25  C   UNL     1      49.248  70.918  40.239  0.00  0.00    +0.000 A 
ATOM     26  C   UNL     1      48.936  72.804  38.776  0.00  0.00    +0.000 A 
ATOM     27  C   UNL     1      48.512  73.556  39.867  0.00  0.00    +0.000 A 
ATOM     28  C   UNL     1      48.818  71.673  41.330  0.00  0.00    +0.000 A 
ATOM     29  C   UNL     1      48.442  73.001  41.141  0.00  0.00    +0.000 A 
ENDBRANCH  21  24
ENDBRANCH  17  21
ENDBRANCH  16  17
ENDBRANCH  10  16
TORSDOF 6
ENDMDL
MODEL 4
REMARK VINA RESULT:      -7.2      2.093      8.642
REMARK  Name = 20628250
REMARK  6 active torsions:
REMARK  status: ('A' for Active; 'I' for Inactive)
REMARK    1  A    between atoms: N_10  and  C_17
REMARK    2  A    between atoms: C_16  and  C_17
REMARK    3  A    between atoms: C_16  and  C_18
REMARK    4  A    between atoms: C_17  and  C_19
REMARK    5  A    between atoms: C_19  and  C_21
REMARK    6  A    between atoms: C_20  and  C_22
REMARK                            x       y       z     vdW  Elec       q    Type
REMARK                         _______ _______ _______ _____ _____    ______ ____
ROOT
ATOM      1  O   UNL     1      28.687  63.091  40.537  0.00  0.00    +0.000 OA
ATOM      2  N   UNL     1      29.440  64.652  39.052  0.00  0.00    +0.000 N 
ATOM      3  N   UNL     1      28.501  65.801  36.712  0.00  0.00    +0.000 N 
ATOM      4  N   UNL     1      28.206  63.924  35.639  0.00  0.00    +0.000 NA
ATOM      5  N   UNL     1      27.764  64.956  34.847  0.00  0.00    +0.000 NA
ATOM      6  C   UNL     1      29.916  65.991  38.693  0.00  0.00    +0.000 C 
ATOM      7  C   UNL     1      28.888  66.680  37.798  0.00  0.00    +0.000 C 
ATOM      8  C   UNL     1      29.246  63.723  37.931  0.00  0.00    +0.000 C 
ATOM      9  C   UNL     1      28.641  64.437  36.767  0.00  0.00    +0.000 A 
ATOM     10  C   UNL     1      29.135  64.218  40.334  0.00  0.00    +0.000 C 
ATOM     11  C   UNL     1      27.941  66.096  35.498  0.00  0.00    +0.000 A 
ENDROOT
BRANCH  11  15
ATOM     12  F   UNL     1      27.151  67.457  33.727  0.00  0.00    +0.000 F 
ATOM     13  F   UNL     1      28.669  68.296  35.030  0.00  0.00    +0.000 F 
ATOM     14  F   UNL     1      26.623  68.037  35.753  0.00  0.00    +0.000 F 
ATOM     15  C   UNL     1      27.602  67.458  35.011  0.00  0.00    +0.000 C 
ENDBRANCH  11  15
BRANCH  10  16
ATOM     16  C   UNL     1      29.365  65.203  41.469  0.00  0.00    +0.000 C 
BRANCH  16  17
ATOM     17  C   UNL     1      28.893  64.695  42.839  0.00  0.00    +0.000 C 
BRANCH  17  18
ATOM     18  N   UNL     1      27.427  64.900  42.904  0.00  0.00    +0.000 NA
ATOM     19  H   UNL     1      26.952  64.039  42.629  0.00  0.00    +0.000 HD
ATOM     20  H   UNL     1      27.156  65.585  42.198  0.00  0.00    +0.000 HD
ENDBRANCH  17  18
BRANCH  17  21
ATOM     21  C   UNL     1      29.597  65.424  44.012  0.00  0.00    +0.000 C 
BRANCH  21  24
ATOM     22  F   UNL     1      30.772  62.842  44.376  0.00  0.00    +0.000 F 
ATOM     23  F   UNL     1      34.205  67.041  43.932  0.00  0.00    +0.000 F 
ATOM     24  C   UNL     1      31.088  65.179  44.077  0.00  0.00    +0.000 A 
ATOM     25  C   UNL     1      31.601  63.889  44.268  0.00  0.00    +0.000 A 
ATOM     26  C   UNL     1      31.986  66.244  43.950  0.00  0.00    +0.000 A 
ATOM     27  C   UNL     1      33.355  66.012  44.043  0.00  0.00    +0.000 A 
ATOM     28  C   UNL     1      32.973  63.661  44.365  0.00  0.00    +0.000 A 
ATOM     29  C   UNL     1      33.857  64.732  44.256  0.00  0.00    +0.000 A 
ENDBRANCH  21  24
ENDBRANCH  17  21
ENDBRANCH  16  17
ENDBRANCH  10  16
TORSDOF 6
ENDMDL
MODEL 5
REMARK VINA RESULT:      -7.1     24.646     27.931
REMARK  Name = 20628250
REMARK  6 active torsions:
REMARK  status: ('A' for Active; 'I' for Inactive)
REMARK    1  A    between atoms: N_10  and  C_17
REMARK    2  A    between atoms: C_16  and  C_17
REMARK    3  A    between atoms: C_16  and  C_18
REMARK    4  A    between atoms: C_17  and  C_19
REMARK    5  A    between atoms: C_19  and  C_21
REMARK    6  A    between atoms: C_20  and  C_22
REMARK                            x       y       z     vdW  Elec       q    Type
REMARK                         _______ _______ _______ _____ _____    ______ ____
ROOT
ATOM      1  O   UNL     1      57.749  68.436  39.308  0.00  0.00    +0.000 OA
ATOM      2  N   UNL     1      56.151  69.993  39.790  0.00  0.00    +0.000 N 
ATOM      3  N   UNL     1      53.824  70.904  38.595  0.00  0.00    +0.000 N 
ATOM      4  N   UNL     1      54.740  71.434  36.686  0.00  0.00    +0.000 NA
ATOM      5  N   UNL     1      53.387  71.648  36.597  0.00  0.00    +0.000 NA
ATOM      6  C   UNL     1      55.114  70.579  40.642  0.00  0.00    +0.000 C 
ATOM      7  C   UNL     1      53.752  70.438  39.965  0.00  0.00    +0.000 C 
ATOM      8  C   UNL     1      56.327  70.624  38.475  0.00  0.00    +0.000 C 
ATOM      9  C   UNL     1      55.000  70.976  37.889  0.00  0.00    +0.000 A 
ATOM     10  C   UNL     1      56.938  68.896  40.109  0.00  0.00    +0.000 C 
ATOM     11  C   UNL     1      52.829  71.325  37.754  0.00  0.00    +0.000 A 
ENDROOT
BRANCH  11  15
ATOM     12  F   UNL     1      51.166  71.400  39.441  0.00  0.00    +0.000 F 
ATOM     13  F   UNL     1      50.675  70.362  37.599  0.00  0.00    +0.000 F 
ATOM     14  F   UNL     1      50.812  72.543  37.628  0.00  0.00    +0.000 F 
ATOM     15  C   UNL     1      51.385  71.405  38.097  0.00  0.00    +0.000 C 
ENDBRANCH  11  15
BRANCH  10  16
ATOM     16  C   UNL     1      56.738  68.281  41.486  0.00  0.00    +0.000 C 
BRANCH  16  17
ATOM     17  C   UNL     1      57.818  68.673  42.505  0.00  0.00    +0.000 C 
BRANCH  17  18
ATOM     18  N   UNL     1      57.953  67.548  43.459  0.00  0.00    +0.000 NA
ATOM     19  H   UNL     1      58.680  67.769  44.142  0.00  0.00    +0.000 HD
ATOM     20  H   UNL     1      58.304  66.731  42.960  0.00  0.00    +0.000 HD
ENDBRANCH  17  18
BRANCH  17  21
ATOM     21  C   UNL     1      57.470  69.985  43.255  0.00  0.00    +0.000 C 
BRANCH  21  24
ATOM     22  F   UNL     1      57.036  72.662  44.160  0.00  0.00    +0.000 F 
ATOM     23  F   UNL     1      61.378  71.836  40.986  0.00  0.00    +0.000 F 
ATOM     24  C   UNL     1      58.372  71.147  42.907  0.00  0.00    +0.000 A 
ATOM     25  C   UNL     1      58.098  72.439  43.374  0.00  0.00    +0.000 A 
ATOM     26  C   UNL     1      59.501  70.951  42.105  0.00  0.00    +0.000 A 
ATOM     27  C   UNL     1      60.307  72.033  41.765  0.00  0.00    +0.000 A 
ATOM     28  C   UNL     1      58.905  73.522  43.028  0.00  0.00    +0.000 A 
ATOM     29  C   UNL     1      60.016  73.318  42.212  0.00  0.00    +0.000 A 
ENDBRANCH  21  24
ENDBRANCH  17  21
ENDBRANCH  16  17
ENDBRANCH  10  16
TORSDOF 6
ENDMDL
MODEL 6
REMARK VINA RESULT:      -6.8     19.924     22.811
REMARK  Name = 20628250
REMARK  6 active torsions:
REMARK  status: ('A' for Active; 'I' for Inactive)
REMARK    1  A    between atoms: N_10  and  C_17
REMARK    2  A    between atoms: C_16  and  C_17
REMARK    3  A    between atoms: C_16  and  C_18
REMARK    4  A    between atoms: C_17  and  C_19
REMARK    5  A    between atoms: C_19  and  C_21
REMARK    6  A    between atoms: C_20  and  C_22
REMARK                            x       y       z     vdW  Elec       q    Type
REMARK                         _______ _______ _______ _____ _____    ______ ____
ROOT
ATOM      1  O   UNL     1      44.700  73.999  49.737  0.00  0.00    +0.000 OA
ATOM      2  N   UNL     1      46.436  72.527  49.910  0.00  0.00    +0.000 N 
ATOM      3  N   UNL     1      47.067  70.048  48.845  0.00  0.00    +0.000 N 
ATOM      4  N   UNL     1      45.249  69.043  49.513  0.00  0.00    +0.000 NA
ATOM      5  N   UNL     1      45.988  68.160  48.765  0.00  0.00    +0.000 NA
ATOM      6  C   UNL     1      47.848  72.155  49.802  0.00  0.00    +0.000 C 
ATOM      7  C   UNL     1      48.025  71.124  48.688  0.00  0.00    +0.000 C 
ATOM      8  C   UNL     1      45.515  71.438  50.266  0.00  0.00    +0.000 C 
ATOM      9  C   UNL     1      45.898  70.184  49.552  0.00  0.00    +0.000 A 
ATOM     10  C   UNL     1      45.910  73.789  49.676  0.00  0.00    +0.000 C 
ATOM     11  C   UNL     1      47.092  68.769  48.358  0.00  0.00    +0.000 A 
ENDROOT
BRANCH  11  15
ATOM     12  F   UNL     1      48.369  68.867  46.364  0.00  0.00    +0.000 F 
ATOM     13  F   UNL     1      47.914  66.902  47.163  0.00  0.00    +0.000 F 
ATOM     14  F   UNL     1      49.370  68.186  48.167  0.00  0.00    +0.000 F 
ATOM     15  C   UNL     1      48.174  68.183  47.525  0.00  0.00    +0.000 C 
ENDBRANCH  11  15
BRANCH  10  16
ATOM     16  C   UNL     1      46.896  74.892  49.327  0.00  0.00    +0.000 C 
BRANCH  16  17
ATOM     17  C   UNL     1      47.298  75.769  50.523  0.00  0.00    +0.000 C 
BRANCH  17  18
ATOM     18  N   UNL     1      46.481  75.337  51.680  0.00  0.00    +0.000 NA
ATOM     19  H   UNL     1      45.711  74.752  51.352  0.00  0.00    +0.000 HD
ATOM     20  H   UNL     1      46.031  76.154  52.092  0.00  0.00    +0.000 HD
ENDBRANCH  17  18
BRANCH  17  21
ATOM     21  C   UNL     1      47.089  77.279  50.242  0.00  0.00    +0.000 C 
BRANCH  21  24
ATOM     22  F   UNL     1      48.178  77.629  47.621  0.00  0.00    +0.000 F 
ATOM     23  F   UNL     1      50.981  79.822  51.737  0.00  0.00    +0.000 F 
ATOM     24  C   UNL     1      48.369  78.032  49.956  0.00  0.00    +0.000 A 
ATOM     25  C   UNL     1      48.856  78.159  48.648  0.00  0.00    +0.000 A 
ATOM     26  C   UNL     1      49.095  78.616  50.999  0.00  0.00    +0.000 A 
ATOM     27  C   UNL     1      50.288  79.279  50.729  0.00  0.00    +0.000 A 
ATOM     28  C   UNL     1      50.054  78.821  48.381  0.00  0.00    +0.000 A 
ATOM     29  C   UNL     1      50.778  79.381  49.431  0.00  0.00    +0.000 A 
ENDBRANCH  21  24
ENDBRANCH  17  21
ENDBRANCH  16  17
ENDBRANCH  10  16
TORSDOF 6
ENDMDL
MODEL 7
REMARK VINA RESULT:      -6.5     21.051     22.583
REMARK  Name = 20628250
REMARK  6 active torsions:
REMARK  status: ('A' for Active; 'I' for Inactive)
REMARK    1  A    between atoms: N_10  and  C_17
REMARK    2  A    between atoms: C_16  and  C_17
REMARK    3  A    between atoms: C_16  and  C_18
REMARK    4  A    between atoms: C_17  and  C_19
REMARK    5  A    between atoms: C_19  and  C_21
REMARK    6  A    between atoms: C_20  and  C_22
REMARK                            x       y       z     vdW  Elec       q    Type
REMARK                         _______ _______ _______ _____ _____    ______ ____
ROOT
ATOM      1  O   UNL     1      45.037  72.432  49.940  0.00  0.00    +0.000 OA
ATOM      2  N   UNL     1      47.113  71.507  50.140  0.00  0.00    +0.000 N 
ATOM      3  N   UNL     1      48.243  69.016  49.694  0.00  0.00    +0.000 N 
ATOM      4  N   UNL     1      46.875  67.911  50.987  0.00  0.00    +0.000 NA
ATOM      5  N   UNL     1      47.717  67.016  50.372  0.00  0.00    +0.000 NA
ATOM      6  C   UNL     1      48.545  71.435  49.839  0.00  0.00    +0.000 C 
ATOM      7  C   UNL     1      48.841  70.165  49.043  0.00  0.00    +0.000 C 
ATOM      8  C   UNL     1      46.581  70.419  50.971  0.00  0.00    +0.000 C 
ATOM      9  C   UNL     1      47.189  69.116  50.568  0.00  0.00    +0.000 A 
ATOM     10  C   UNL     1      46.238  72.481  49.683  0.00  0.00    +0.000 C 
ATOM     11  C   UNL     1      48.546  67.686  49.586  0.00  0.00    +0.000 A 
ENDROOT
BRANCH  11  15
ATOM     12  F   UNL     1      50.862  67.539  49.102  0.00  0.00    +0.000 F 
ATOM     13  F   UNL     1      49.484  67.445  47.429  0.00  0.00    +0.000 F 
ATOM     14  F   UNL     1      49.657  65.756  48.805  0.00  0.00    +0.000 F 
ATOM     15  C   UNL     1      49.622  67.111  48.736  0.00  0.00    +0.000 C 
ENDBRANCH  11  15
BRANCH  10  16
ATOM     16  C   UNL     1      46.830  73.599  48.839  0.00  0.00    +0.000 C 
BRANCH  16  17
ATOM     17  C   UNL     1      47.082  74.899  49.617  0.00  0.00    +0.000 C 
BRANCH  17  18
ATOM     18  N   UNL     1      46.252  74.847  50.844  0.00  0.00    +0.000 NA
ATOM     19  H   UNL     1      46.813  74.486  51.617  0.00  0.00    +0.000 HD
ATOM     20  H   UNL     1      45.512  74.157  50.714  0.00  0.00    +0.000 HD
ENDBRANCH  17  18
BRANCH  17  21
ATOM     21  C   UNL     1      46.740  76.160  48.782  0.00  0.00    +0.000 C 
BRANCH  21  24
ATOM     22  F   UNL     1      45.658  78.093  50.591  0.00  0.00    +0.000 F 
ATOM     23  F   UNL     1      50.656  79.077  48.677  0.00  0.00    +0.000 F 
ATOM     24  C   UNL     1      47.477  77.405  49.224  0.00  0.00    +0.000 A 
ATOM     25  C   UNL     1      46.887  78.319  50.106  0.00  0.00    +0.000 A 
ATOM     26  C   UNL     1      48.769  77.666  48.755  0.00  0.00    +0.000 A 
ATOM     27  C   UNL     1      49.425  78.830  49.143  0.00  0.00    +0.000 A 
ATOM     28  C   UNL     1      47.546  79.486  50.490  0.00  0.00    +0.000 A 
ATOM     29  C   UNL     1      48.824  79.746  50.000  0.00  0.00    +0.000 A 
ENDBRANCH  21  24
ENDBRANCH  17  21
ENDBRANCH  16  17
ENDBRANCH  10  16
TORSDOF 6
ENDMDL
MODEL 8
REMARK VINA RESULT:      -6.4     18.973     22.772
REMARK  Name = 20628250
REMARK  6 active torsions:
REMARK  status: ('A' for Active; 'I' for Inactive)
REMARK    1  A    between atoms: N_10  and  C_17
REMARK    2  A    between atoms: C_16  and  C_17
REMARK    3  A    between atoms: C_16  and  C_18
REMARK    4  A    between atoms: C_17  and  C_19
REMARK    5  A    between atoms: C_19  and  C_21
REMARK    6  A    between atoms: C_20  and  C_22
REMARK                            x       y       z     vdW  Elec       q    Type
REMARK                         _______ _______ _______ _____ _____    ______ ____
ROOT
ATOM      1  O   UNL     1      44.550  74.254  51.820  0.00  0.00    +0.000 OA
ATOM      2  N   UNL     1      46.063  72.894  50.786  0.00  0.00    +0.000 N 
ATOM      3  N   UNL     1      45.987  70.460  49.464  0.00  0.00    +0.000 N 
ATOM      4  N   UNL     1      45.067  69.342  51.097  0.00  0.00    +0.000 NA
ATOM      5  N   UNL     1      45.199  68.508  50.014  0.00  0.00    +0.000 NA
ATOM      6  C   UNL     1      47.096  72.611  49.786  0.00  0.00    +0.000 C 
ATOM      7  C   UNL     1      46.570  71.595  48.775  0.00  0.00    +0.000 C 
ATOM      8  C   UNL     1      45.637  71.749  51.603  0.00  0.00    +0.000 C 
ATOM      9  C   UNL     1      45.535  70.522  50.759  0.00  0.00    +0.000 A 
ATOM     10  C   UNL     1      45.450  74.120  50.992  0.00  0.00    +0.000 C 
ATOM     11  C   UNL     1      45.755  69.185  49.021  0.00  0.00    +0.000 A 
ENDROOT
BRANCH  11  15
ATOM     12  F   UNL     1      46.032  67.310  47.599  0.00  0.00    +0.000 F 
ATOM     13  F   UNL     1      47.330  69.017  47.265  0.00  0.00    +0.000 F 
ATOM     14  F   UNL     1      45.215  69.124  46.725  0.00  0.00    +0.000 F 
ATOM     15  C   UNL     1      46.082  68.669  47.666  0.00  0.00    +0.000 C 
ENDBRANCH  11  15
BRANCH  10  16
ATOM     16  C   UNL     1      45.930  75.284  50.139  0.00  0.00    +0.000 C 
BRANCH  16  17
ATOM     17  C   UNL     1      46.996  76.155  50.820  0.00  0.00    +0.000 C 
BRANCH  17  18
ATOM     18  N   UNL     1      46.859  75.959  52.282  0.00  0.00    +0.000 NA
ATOM     19  H   UNL     1      45.869  75.926  52.528  0.00  0.00    +0.000 HD
ATOM     20  H   UNL     1      47.221  76.782  52.762  0.00  0.00    +0.000 HD
ENDBRANCH  17  18
BRANCH  17  21
ATOM     21  C   UNL     1      46.850  77.655  50.456  0.00  0.00    +0.000 C 
BRANCH  21  24
ATOM     22  F   UNL     1      47.785  79.389  52.529  0.00  0.00    +0.000 F 
ATOM     23  F   UNL     1      50.996  78.851  48.168  0.00  0.00    +0.000 F 
ATOM     24  C   UNL     1      48.164  78.402  50.399  0.00  0.00    +0.000 A 
ATOM     25  C   UNL     1      48.560  79.246  51.445  0.00  0.00    +0.000 A 
ATOM     26  C   UNL     1      49.009  78.265  49.294  0.00  0.00    +0.000 A 
ATOM     27  C   UNL     1      50.201  78.981  49.237  0.00  0.00    +0.000 A 
ATOM     28  C   UNL     1      49.753  79.965  51.384  0.00  0.00    +0.000 A 
ATOM     29  C   UNL     1      50.577  79.835  50.268  0.00  0.00    +0.000 A 
ENDBRANCH  21  24
ENDBRANCH  17  21
ENDBRANCH  16  17
ENDBRANCH  10  16
TORSDOF 6
ENDMDL
MODEL 9
REMARK VINA RESULT:      -6.4     23.249     25.634
REMARK  Name = 20628250
REMARK  6 active torsions:
REMARK  status: ('A' for Active; 'I' for Inactive)
REMARK    1  A    between atoms: N_10  and  C_17
REMARK    2  A    between atoms: C_16  and  C_17
REMARK    3  A    between atoms: C_16  and  C_18
REMARK    4  A    between atoms: C_17  and  C_19
REMARK    5  A    between atoms: C_19  and  C_21
REMARK    6  A    between atoms: C_20  and  C_22
REMARK                            x       y       z     vdW  Elec       q    Type
REMARK                         _______ _______ _______ _____ _____    ______ ____
ROOT
ATOM      1  O   UNL     1      53.792  67.912  40.933  0.00  0.00    +0.000 OA
ATOM      2  N   UNL     1      55.460  69.418  41.334  0.00  0.00    +0.000 N 
ATOM      3  N   UNL     1      58.109  69.715  40.577  0.00  0.00    +0.000 N 
ATOM      4  N   UNL     1      58.769  67.760  41.287  0.00  0.00    +0.000 NA
ATOM      5  N   UNL     1      59.827  68.382  40.670  0.00  0.00    +0.000 NA
ATOM      6  C   UNL     1      56.033  70.766  41.319  0.00  0.00    +0.000 C 
ATOM      7  C   UNL     1      57.201  70.819  40.335  0.00  0.00    +0.000 C 
ATOM      8  C   UNL     1      56.362  68.346  41.776  0.00  0.00    +0.000 C 
ATOM      9  C   UNL     1      57.732  68.563  41.221  0.00  0.00    +0.000 A 
ATOM     10  C   UNL     1      54.173  69.081  40.941  0.00  0.00    +0.000 C 
ATOM     11  C   UNL     1      59.427  69.569  40.237  0.00  0.00    +0.000 A 
ENDROOT
BRANCH  11  15
ATOM     12  F   UNL     1      61.585  70.338  39.632  0.00  0.00    +0.000 F 
ATOM     13  F   UNL     1      60.051  71.834  39.976  0.00  0.00    +0.000 F 
ATOM     14  F   UNL     1      59.986  70.587  38.183  0.00  0.00    +0.000 F 
ATOM     15  C   UNL     1      60.249  70.574  39.515  0.00  0.00    +0.000 C 
ENDBRANCH  11  15
BRANCH  10  16
ATOM     16  C   UNL     1      53.264  70.220  40.506  0.00  0.00    +0.000 C 
BRANCH  16  17
ATOM     17  C   UNL     1      52.129  70.522  41.495  0.00  0.00    +0.000 C 
BRANCH  17  18
ATOM     18  N   UNL     1      52.399  69.745  42.727  0.00  0.00    +0.000 NA
ATOM     19  H   UNL     1      53.073  70.251  43.306  0.00  0.00    +0.000 HD
ATOM     20  H   UNL     1      52.871  68.877  42.475  0.00  0.00    +0.000 HD
ENDBRANCH  17  18
BRANCH  17  21
ATOM     21  C   UNL     1      50.735  70.163  40.919  0.00  0.00    +0.000 C 
BRANCH  21  24
ATOM     22  F   UNL     1      48.869  71.558  42.576  0.00  0.00    +0.000 F 
ATOM     23  F   UNL     1      49.465  73.401  37.491  0.00  0.00    +0.000 F 
ATOM     24  C   UNL     1      49.935  71.361  40.461  0.00  0.00    +0.000 A 
ATOM     25  C   UNL     1      49.028  71.995  41.319  0.00  0.00    +0.000 A 
ATOM     26  C   UNL     1      50.086  71.858  39.162  0.00  0.00    +0.000 A 
ATOM     27  C   UNL     1      49.322  72.941  38.740  0.00  0.00    +0.000 A 
ATOM     28  C   UNL     1      48.260  73.078  40.892  0.00  0.00    +0.000 A 
ATOM     29  C   UNL     1      48.405  73.551  39.590  0.00  0.00    +0.000 A 
ENDBRANCH  21  24
ENDBRANCH  17  21
ENDBRANCH  16  17
ENDBRANCH  10  16
TORSDOF 6
ENDMDL
