MODEL 1
REMARK VINA RESULT:      -8.2      0.000      0.000
REMARK  Name = 10222794
REMARK  7 active torsions:
REMARK  status: ('A' for Active; 'I' for Inactive)
REMARK    1  A    between atoms: N_11  and  C_18
REMARK    2  A    between atoms: C_16  and  C_17
REMARK    3  A    between atoms: C_16  and  C_18
REMARK    4  A    between atoms: C_18  and  C_20
REMARK    5  A    between atoms: C_19  and  C_21
REMARK    6  A    between atoms: C_20  and  C_22
REMARK    7  A    between atoms: C_21  and  C_23
REMARK                            x       y       z     vdW  Elec       q    Type
REMARK                         _______ _______ _______ _____ _____    ______ ____
ROOT
ATOM      1  O   UNL     1      42.004  50.103  38.794  0.00  0.00    +0.000 OA
ATOM      2  N   UNL     1      42.931  50.962  36.885  0.00  0.00    +0.000 N 
ATOM      3  N   UNL     1      45.176  52.038  35.620  0.00  0.00    +0.000 N 
ATOM      4  N   UNL     1      44.131  52.626  33.798  0.00  0.00    +0.000 NA
ATOM      5  N   UNL     1      45.424  53.087  33.728  0.00  0.00    +0.000 NA
ATOM      6  C   UNL     1      44.260  50.467  37.273  0.00  0.00    +0.000 C 
ATOM      7  C   UNL     1      45.362  51.473  36.936  0.00  0.00    +0.000 C 
ATOM      8  C   UNL     1      42.772  51.315  35.467  0.00  0.00    +0.000 C 
ATOM      9  C   UNL     1      43.985  51.999  34.944  0.00  0.00    +0.000 A 
ATOM     10  C   UNL     1      41.850  50.691  37.726  0.00  0.00    +0.000 C 
ATOM     11  C   UNL     1      46.054  52.735  34.832  0.00  0.00    +0.000 A 
ENDROOT
BRANCH  10  12
ATOM     12  C   UNL     1      40.474  51.168  37.265  0.00  0.00    +0.000 C 
BRANCH  12  13
ATOM     13  C   UNL     1      39.367  50.085  37.237  0.00  0.00    +0.000 C 
BRANCH  13  14
ATOM     14  N   UNL     1      40.014  48.760  37.125  0.00  0.00    +0.000 NA
ATOM     15  H   UNL     1      40.149  48.492  36.151  0.00  0.00    +0.000 HD
ATOM     16  H   UNL     1      39.434  48.040  37.553  0.00  0.00    +0.000 HD
ENDBRANCH  13  14
BRANCH  13  17
ATOM     17  C   UNL     1      38.373  50.310  36.065  0.00  0.00    +0.000 C 
BRANCH  17  20
ATOM     18  F   UNL     1      36.381  51.807  37.246  0.00  0.00    +0.000 F 
ATOM     19  F   UNL     1      34.744  47.036  35.239  0.00  0.00    +0.000 F 
ATOM     20  C   UNL     1      36.949  49.792  36.130  0.00  0.00    +0.000 A 
ATOM     21  C   UNL     1      35.998  50.622  36.750  0.00  0.00    +0.000 A 
ATOM     22  C   UNL     1      36.505  48.566  35.625  0.00  0.00    +0.000 A 
ATOM     23  C   UNL     1      35.159  48.207  35.740  0.00  0.00    +0.000 A 
ATOM     24  C   UNL     1      34.658  50.260  36.873  0.00  0.00    +0.000 A 
ATOM     25  C   UNL     1      34.234  49.041  36.360  0.00  0.00    +0.000 A 
ENDBRANCH  17  20
ENDBRANCH  13  17
ENDBRANCH  12  13
ENDBRANCH  10  12
BRANCH  11  26
ATOM     26  C   UNL     1      47.487  53.003  35.127  0.00  0.00    +0.000 C 
BRANCH  26  30
ATOM     27  F   UNL     1      48.260  51.557  33.375  0.00  0.00    +0.000 F 
ATOM     28  F   UNL     1      48.374  50.822  35.423  0.00  0.00    +0.000 F 
ATOM     29  F   UNL     1      49.726  52.392  34.743  0.00  0.00    +0.000 F 
ATOM     30  C   UNL     1      48.452  51.932  34.657  0.00  0.00    +0.000 C 
ENDBRANCH  26  30
ENDBRANCH  11  26
TORSDOF 7
ENDMDL
MODEL 2
REMARK VINA RESULT:      -8.2      4.716      7.600
REMARK  Name = 10222794
REMARK  7 active torsions:
REMARK  status: ('A' for Active; 'I' for Inactive)
REMARK    1  A    between atoms: N_11  and  C_18
REMARK    2  A    between atoms: C_16  and  C_17
REMARK    3  A    between atoms: C_16  and  C_18
REMARK    4  A    between atoms: C_18  and  C_20
REMARK    5  A    between atoms: C_19  and  C_21
REMARK    6  A    between atoms: C_20  and  C_22
REMARK    7  A    between atoms: C_21  and  C_23
REMARK                            x       y       z     vdW  Elec       q    Type
REMARK                         _______ _______ _______ _____ _____    ______ ____
ROOT
ATOM      1  O   UNL     1      48.229  53.960  34.197  0.00  0.00    +0.000 OA
ATOM      2  N   UNL     1      49.288  51.930  34.234  0.00  0.00    +0.000 N 
ATOM      3  N   UNL     1      51.687  50.515  34.442  0.00  0.00    +0.000 N 
ATOM      4  N   UNL     1      50.832  48.574  33.933  0.00  0.00    +0.000 NA
ATOM      5  N   UNL     1      52.196  48.436  34.041  0.00  0.00    +0.000 NA
ATOM      6  C   UNL     1      50.346  52.466  35.103  0.00  0.00    +0.000 C 
ATOM      7  C   UNL     1      51.726  51.933  34.714  0.00  0.00    +0.000 C 
ATOM      8  C   UNL     1      49.186  50.464  34.185  0.00  0.00    +0.000 C 
ATOM      9  C   UNL     1      50.532  49.832  34.169  0.00  0.00    +0.000 A 
ATOM     10  C   UNL     1      48.243  52.778  33.860  0.00  0.00    +0.000 C 
ATOM     11  C   UNL     1      52.712  49.612  34.345  0.00  0.00    +0.000 A 
ENDROOT
BRANCH  10  12
ATOM     12  C   UNL     1      47.131  52.173  33.005  0.00  0.00    +0.000 C 
BRANCH  12  13
ATOM     13  C   UNL     1      45.698  52.321  33.573  0.00  0.00    +0.000 C 
BRANCH  13  14
ATOM     14  N   UNL     1      45.264  53.723  33.384  0.00  0.00    +0.000 NA
ATOM     15  H   UNL     1      45.408  54.275  34.227  0.00  0.00    +0.000 HD
ATOM     16  H   UNL     1      44.269  53.765  33.168  0.00  0.00    +0.000 HD
ENDBRANCH  13  14
BRANCH  13  17
ATOM     17  C   UNL     1      45.632  51.926  35.073  0.00  0.00    +0.000 C 
BRANCH  17  20
ATOM     18  F   UNL     1      45.621  50.883  37.626  0.00  0.00    +0.000 F 
ATOM     19  F   UNL     1      40.782  50.903  35.167  0.00  0.00    +0.000 F 
ATOM     20  C   UNL     1      44.350  51.404  35.693  0.00  0.00    +0.000 A 
ATOM     21  C   UNL     1      44.437  50.891  36.999  0.00  0.00    +0.000 A 
ATOM     22  C   UNL     1      43.093  51.394  35.078  0.00  0.00    +0.000 A 
ATOM     23  C   UNL     1      41.982  50.894  35.763  0.00  0.00    +0.000 A 
ATOM     24  C   UNL     1      43.331  50.383  37.678  0.00  0.00    +0.000 A 
ATOM     25  C   UNL     1      42.091  50.387  37.054  0.00  0.00    +0.000 A 
ENDBRANCH  17  20
ENDBRANCH  13  17
ENDBRANCH  12  13
ENDBRANCH  10  12
BRANCH  11  26
ATOM     26  C   UNL     1      54.154  49.878  34.597  0.00  0.00    +0.000 C 
BRANCH  26  30
ATOM     27  F   UNL     1      55.880  49.543  36.230  0.00  0.00    +0.000 F 
ATOM     28  F   UNL     1      55.184  47.804  35.116  0.00  0.00    +0.000 F 
ATOM     29  F   UNL     1      53.910  48.720  36.629  0.00  0.00    +0.000 F 
ATOM     30  C   UNL     1      54.800  48.988  35.640  0.00  0.00    +0.000 C 
ENDBRANCH  26  30
ENDBRANCH  11  26
TORSDOF 7
ENDMDL
MODEL 3
REMARK VINA RESULT:      -7.9      5.941      9.024
REMARK  Name = 10222794
REMARK  7 active torsions:
REMARK  status: ('A' for Active; 'I' for Inactive)
REMARK    1  A    between atoms: N_11  and  C_18
REMARK    2  A    between atoms: C_16  and  C_17
REMARK    3  A    between atoms: C_16  and  C_18
REMARK    4  A    between atoms: C_18  and  C_20
REMARK    5  A    between atoms: C_19  and  C_21
REMARK    6  A    between atoms: C_20  and  C_22
REMARK    7  A    between atoms: C_21  and  C_23
REMARK                            x       y       z     vdW  Elec       q    Type
REMARK                         _______ _______ _______ _____ _____    ______ ____
ROOT
ATOM      1  O   UNL     1      41.235  51.088  39.782  0.00  0.00    +0.000 OA
ATOM      2  N   UNL     1      39.226  51.620  40.744  0.00  0.00    +0.000 N 
ATOM      3  N   UNL     1      37.494  51.340  42.917  0.00  0.00    +0.000 N 
ATOM      4  N   UNL     1      35.801  52.333  41.966  0.00  0.00    +0.000 NA
ATOM      5  N   UNL     1      35.390  51.837  43.181  0.00  0.00    +0.000 NA
ATOM      6  C   UNL     1      39.804  51.489  42.090  0.00  0.00    +0.000 C 
ATOM      7  C   UNL     1      38.832  50.817  43.063  0.00  0.00    +0.000 C 
ATOM      8  C   UNL     1      37.958  52.359  40.665  0.00  0.00    +0.000 C 
ATOM      9  C   UNL     1      37.069  52.025  41.810  0.00  0.00    +0.000 A 
ATOM     10  C   UNL     1      40.060  51.420  39.642  0.00  0.00    +0.000 C 
ATOM     11  C   UNL     1      36.414  51.233  43.753  0.00  0.00    +0.000 A 
ENDROOT
BRANCH  10  12
ATOM     12  C   UNL     1      39.443  51.621  38.259  0.00  0.00    +0.000 C 
BRANCH  12  13
ATOM     13  C   UNL     1      39.174  50.326  37.454  0.00  0.00    +0.000 C 
BRANCH  13  14
ATOM     14  N   UNL     1      40.467  49.812  36.954  0.00  0.00    +0.000 NA
ATOM     15  H   UNL     1      41.175  49.805  37.686  0.00  0.00    +0.000 HD
ATOM     16  H   UNL     1      40.823  50.403  36.204  0.00  0.00    +0.000 HD
ENDBRANCH  13  14
BRANCH  13  17
ATOM     17  C   UNL     1      38.191  50.576  36.278  0.00  0.00    +0.000 C 
BRANCH  17  20
ATOM     18  F   UNL     1      35.946  51.726  37.392  0.00  0.00    +0.000 F 
ATOM     19  F   UNL     1      35.089  46.919  35.021  0.00  0.00    +0.000 F 
ATOM     20  C   UNL     1      36.848  49.875  36.214  0.00  0.00    +0.000 A 
ATOM     21  C   UNL     1      35.757  50.535  36.807  0.00  0.00    +0.000 A 
ATOM     22  C   UNL     1      36.603  48.636  35.613  0.00  0.00    +0.000 A 
ATOM     23  C   UNL     1      35.312  48.101  35.611  0.00  0.00    +0.000 A 
ATOM     24  C   UNL     1      34.472  49.997  36.815  0.00  0.00    +0.000 A 
ATOM     25  C   UNL     1      34.246  48.768  36.208  0.00  0.00    +0.000 A 
ENDBRANCH  17  20
ENDBRANCH  13  17
ENDBRANCH  12  13
ENDBRANCH  10  12
BRANCH  11  26
ATOM     26  C   UNL     1      36.397  50.604  45.101  0.00  0.00    +0.000 C 
BRANCH  26  30
ATOM     27  F   UNL     1      37.404  48.427  45.185  0.00  0.00    +0.000 F 
ATOM     28  F   UNL     1      35.589  48.662  44.002  0.00  0.00    +0.000 F 
ATOM     29  F   UNL     1      35.496  48.718  46.180  0.00  0.00    +0.000 F 
ATOM     30  C   UNL     1      36.235  49.097  45.106  0.00  0.00    +0.000 C 
ENDBRANCH  26  30
ENDBRANCH  11  26
TORSDOF 7
ENDMDL
MODEL 4
REMARK VINA RESULT:      -7.5     22.073     24.001
REMARK  Name = 10222794
REMARK  7 active torsions:
REMARK  status: ('A' for Active; 'I' for Inactive)
REMARK    1  A    between atoms: N_11  and  C_18
REMARK    2  A    between atoms: C_16  and  C_17
REMARK    3  A    between atoms: C_16  and  C_18
REMARK    4  A    between atoms: C_18  and  C_20
REMARK    5  A    between atoms: C_19  and  C_21
REMARK    6  A    between atoms: C_20  and  C_22
REMARK    7  A    between atoms: C_21  and  C_23
REMARK                            x       y       z     vdW  Elec       q    Type
REMARK                         _______ _______ _______ _____ _____    ______ ____
ROOT
ATOM      1  O   UNL     1      51.817  68.292  43.747  0.00  0.00    +0.000 OA
ATOM      2  N   UNL     1      53.170  69.379  42.253  0.00  0.00    +0.000 N 
ATOM      3  N   UNL     1      55.597  70.669  41.761  0.00  0.00    +0.000 N 
ATOM      4  N   UNL     1      55.051  71.398  39.779  0.00  0.00    +0.000 NA
ATOM      5  N   UNL     1      56.280  71.916  40.111  0.00  0.00    +0.000 NA
ATOM      6  C   UNL     1      54.373  68.901  42.950  0.00  0.00    +0.000 C 
ATOM      7  C   UNL     1      55.455  69.980  43.022  0.00  0.00    +0.000 C 
ATOM      8  C   UNL     1      53.381  69.869  40.883  0.00  0.00    +0.000 C 
ATOM      9  C   UNL     1      54.641  70.651  40.780  0.00  0.00    +0.000 A 
ATOM     10  C   UNL     1      51.921  68.979  42.733  0.00  0.00    +0.000 C 
ATOM     11  C   UNL     1      56.607  71.478  41.312  0.00  0.00    +0.000 A 
ENDROOT
BRANCH  10  12
ATOM     12  C   UNL     1      50.694  69.445  41.951  0.00  0.00    +0.000 C 
BRANCH  12  13
ATOM     13  C   UNL     1      49.679  70.300  42.750  0.00  0.00    +0.000 C 
BRANCH  13  14
ATOM     14  N   UNL     1      49.256  69.530  43.939  0.00  0.00    +0.000 NA
ATOM     15  H   UNL     1      48.257  69.630  44.113  0.00  0.00    +0.000 HD
ATOM     16  H   UNL     1      49.736  69.865  44.773  0.00  0.00    +0.000 HD
ENDBRANCH  13  14
BRANCH  13  17
ATOM     17  C   UNL     1      48.450  70.689  41.883  0.00  0.00    +0.000 C 
BRANCH  17  20
ATOM     18  F   UNL     1      48.767  70.572  39.146  0.00  0.00    +0.000 F 
ATOM     19  F   UNL     1      48.129  75.580  41.139  0.00  0.00    +0.000 F 
ATOM     20  C   UNL     1      48.448  71.955  41.047  0.00  0.00    +0.000 A 
ATOM     21  C   UNL     1      48.615  71.801  39.659  0.00  0.00    +0.000 A 
ATOM     22  C   UNL     1      48.290  73.255  41.537  0.00  0.00    +0.000 A 
ATOM     23  C   UNL     1      48.295  74.341  40.658  0.00  0.00    +0.000 A 
ATOM     24  C   UNL     1      48.630  72.884  38.783  0.00  0.00    +0.000 A 
ATOM     25  C   UNL     1      48.465  74.167  39.288  0.00  0.00    +0.000 A 
ENDBRANCH  17  20
ENDBRANCH  13  17
ENDBRANCH  12  13
ENDBRANCH  10  12
BRANCH  11  26
ATOM     26  C   UNL     1      57.885  71.773  42.016  0.00  0.00    +0.000 C 
BRANCH  26  30
ATOM     27  F   UNL     1      59.556  71.871  40.297  0.00  0.00    +0.000 F 
ATOM     28  F   UNL     1      58.922  69.903  40.986  0.00  0.00    +0.000 F 
ATOM     29  F   UNL     1      60.145  71.174  42.268  0.00  0.00    +0.000 F 
ATOM     30  C   UNL     1      59.124  71.181  41.374  0.00  0.00    +0.000 C 
ENDBRANCH  26  30
ENDBRANCH  11  26
TORSDOF 7
ENDMDL
MODEL 5
REMARK VINA RESULT:      -7.5      4.404     11.475
REMARK  Name = 10222794
REMARK  7 active torsions:
REMARK  status: ('A' for Active; 'I' for Inactive)
REMARK    1  A    between atoms: N_11  and  C_18
REMARK    2  A    between atoms: C_16  and  C_17
REMARK    3  A    between atoms: C_16  and  C_18
REMARK    4  A    between atoms: C_18  and  C_20
REMARK    5  A    between atoms: C_19  and  C_21
REMARK    6  A    between atoms: C_20  and  C_22
REMARK    7  A    between atoms: C_21  and  C_23
REMARK                            x       y       z     vdW  Elec       q    Type
REMARK                         _______ _______ _______ _____ _____    ______ ____
ROOT
ATOM      1  O   UNL     1      49.730  50.714  36.946  0.00  0.00    +0.000 OA
ATOM      2  N   UNL     1      47.813  51.562  36.024  0.00  0.00    +0.000 N 
ATOM      3  N   UNL     1      45.021  51.580  35.966  0.00  0.00    +0.000 N 
ATOM      4  N   UNL     1      44.855  52.809  34.172  0.00  0.00    +0.000 NA
ATOM      5  N   UNL     1      43.595  52.398  34.538  0.00  0.00    +0.000 NA
ATOM      6  C   UNL     1      47.083  51.362  37.285  0.00  0.00    +0.000 C 
ATOM      7  C   UNL     1      45.658  50.860  37.044  0.00  0.00    +0.000 C 
ATOM      8  C   UNL     1      47.188  52.486  35.067  0.00  0.00    +0.000 C 
ATOM      9  C   UNL     1      45.711  52.307  35.034  0.00  0.00    +0.000 A 
ATOM     10  C   UNL     1      49.167  51.222  35.979  0.00  0.00    +0.000 C 
ATOM     11  C   UNL     1      43.697  51.651  35.621  0.00  0.00    +0.000 A 
ENDROOT
BRANCH  10  12
ATOM     12  C   UNL     1      49.909  51.497  34.672  0.00  0.00    +0.000 C 
BRANCH  12  13
ATOM     13  C   UNL     1      50.271  50.246  33.834  0.00  0.00    +0.000 C 
BRANCH  13  14
ATOM     14  N   UNL     1      49.988  49.043  34.648  0.00  0.00    +0.000 NA
ATOM     15  H   UNL     1      50.454  49.087  35.553  0.00  0.00    +0.000 HD
ATOM     16  H   UNL     1      50.330  48.205  34.180  0.00  0.00    +0.000 HD
ENDBRANCH  13  14
BRANCH  13  17
ATOM     17  C   UNL     1      51.757  50.267  33.385  0.00  0.00    +0.000 C 
BRANCH  17  20
ATOM     18  F   UNL     1      53.097  51.462  35.478  0.00  0.00    +0.000 F 
ATOM     19  F   UNL     1      54.578  46.338  34.472  0.00  0.00    +0.000 F 
ATOM     20  C   UNL     1      52.822  49.511  34.157  0.00  0.00    +0.000 A 
ATOM     21  C   UNL     1      53.453  50.198  35.209  0.00  0.00    +0.000 A 
ATOM     22  C   UNL     1      53.223  48.194  33.913  0.00  0.00    +0.000 A 
ATOM     23  C   UNL     1      54.212  47.605  34.706  0.00  0.00    +0.000 A 
ATOM     24  C   UNL     1      54.446  49.615  35.993  0.00  0.00    +0.000 A 
ATOM     25  C   UNL     1      54.827  48.304  35.741  0.00  0.00    +0.000 A 
ENDBRANCH  17  20
ENDBRANCH  13  17
ENDBRANCH  12  13
ENDBRANCH  10  12
BRANCH  11  26
ATOM     26  C   UNL     1      42.555  51.050  36.361  0.00  0.00    +0.000 C 
BRANCH  26  30
ATOM     27  F   UNL     1      40.557  51.537  35.125  0.00  0.00    +0.000 F 
ATOM     28  F   UNL     1      40.692  49.601  36.115  0.00  0.00    +0.000 F 
ATOM     29  F   UNL     1      41.903  50.019  34.351  0.00  0.00    +0.000 F 
ATOM     30  C   UNL     1      41.412  50.561  35.494  0.00  0.00    +0.000 C 
ENDBRANCH  26  30
ENDBRANCH  11  26
TORSDOF 7
ENDMDL
MODEL 6
REMARK VINA RESULT:      -7.4     22.230     25.171
REMARK  Name = 10222794
REMARK  7 active torsions:
REMARK  status: ('A' for Active; 'I' for Inactive)
REMARK    1  A    between atoms: N_11  and  C_18
REMARK    2  A    between atoms: C_16  and  C_17
REMARK    3  A    between atoms: C_16  and  C_18
REMARK    4  A    between atoms: C_18  and  C_20
REMARK    5  A    between atoms: C_19  and  C_21
REMARK    6  A    between atoms: C_20  and  C_22
REMARK    7  A    between atoms: C_21  and  C_23
REMARK                            x       y       z     vdW  Elec       q    Type
REMARK                         _______ _______ _______ _____ _____    ______ ____
ROOT
ATOM      1  O   UNL     1      54.413  69.042  35.686  0.00  0.00    +0.000 OA
ATOM      2  N   UNL     1      53.287  69.647  37.586  0.00  0.00    +0.000 N 
ATOM      3  N   UNL     1      50.904  70.528  38.747  0.00  0.00    +0.000 N 
ATOM      4  N   UNL     1      51.755  70.904  40.719  0.00  0.00    +0.000 NA
ATOM      5  N   UNL     1      50.450  71.334  40.718  0.00  0.00    +0.000 NA
ATOM      6  C   UNL     1      52.014  69.184  37.014  0.00  0.00    +0.000 C 
ATOM      7  C   UNL     1      50.859  70.125  37.360  0.00  0.00    +0.000 C 
ATOM      8  C   UNL     1      53.301  69.827  39.045  0.00  0.00    +0.000 C 
ATOM      9  C   UNL     1      52.026  70.424  39.525  0.00  0.00    +0.000 A 
ATOM     10  C   UNL     1      54.450  69.497  36.828  0.00  0.00    +0.000 C 
ATOM     11  C   UNL     1      49.937  71.110  39.523  0.00  0.00    +0.000 A 
ENDROOT
BRANCH  10  12
ATOM     12  C   UNL     1      55.762  69.935  37.475  0.00  0.00    +0.000 C 
BRANCH  12  13
ATOM     13  C   UNL     1      56.263  71.347  37.079  0.00  0.00    +0.000 C 
BRANCH  13  14
ATOM     14  N   UNL     1      57.339  71.194  36.076  0.00  0.00    +0.000 NA
ATOM     15  H   UNL     1      57.113  70.474  35.392  0.00  0.00    +0.000 HD
ATOM     16  H   UNL     1      58.211  70.914  36.524  0.00  0.00    +0.000 HD
ENDBRANCH  13  14
BRANCH  13  17
ATOM     17  C   UNL     1      56.772  72.142  38.312  0.00  0.00    +0.000 C 
BRANCH  17  20
ATOM     18  F   UNL     1      59.230  70.931  38.621  0.00  0.00    +0.000 F 
ATOM     19  F   UNL     1      55.971  70.578  42.948  0.00  0.00    +0.000 F 
ATOM     20  C   UNL     1      57.132  71.438  39.606  0.00  0.00    +0.000 A 
ATOM     21  C   UNL     1      58.408  70.849  39.677  0.00  0.00    +0.000 A 
ATOM     22  C   UNL     1      56.309  71.330  40.732  0.00  0.00    +0.000 A 
ATOM     23  C   UNL     1      56.765  70.662  41.872  0.00  0.00    +0.000 A 
ATOM     24  C   UNL     1      58.858  70.174  40.809  0.00  0.00    +0.000 A 
ATOM     25  C   UNL     1      58.029  70.083  41.919  0.00  0.00    +0.000 A 
ENDBRANCH  17  20
ENDBRANCH  13  17
ENDBRANCH  12  13
ENDBRANCH  10  12
BRANCH  11  26
ATOM     26  C   UNL     1      48.531  71.390  39.124  0.00  0.00    +0.000 C 
BRANCH  26  30
ATOM     27  F   UNL     1      48.060  73.703  39.555  0.00  0.00    +0.000 F 
ATOM     28  F   UNL     1      47.222  72.815  37.750  0.00  0.00    +0.000 F 
ATOM     29  F   UNL     1      49.362  73.210  37.888  0.00  0.00    +0.000 F 
ATOM     30  C   UNL     1      48.280  72.786  38.590  0.00  0.00    +0.000 C 
ENDBRANCH  26  30
ENDBRANCH  11  26
TORSDOF 7
ENDMDL
MODEL 7
REMARK VINA RESULT:      -6.8      7.070      8.864
REMARK  Name = 10222794
REMARK  7 active torsions:
REMARK  status: ('A' for Active; 'I' for Inactive)
REMARK    1  A    between atoms: N_11  and  C_18
REMARK    2  A    between atoms: C_16  and  C_17
REMARK    3  A    between atoms: C_16  and  C_18
REMARK    4  A    between atoms: C_18  and  C_20
REMARK    5  A    between atoms: C_19  and  C_21
REMARK    6  A    between atoms: C_20  and  C_22
REMARK    7  A    between atoms: C_21  and  C_23
REMARK                            x       y       z     vdW  Elec       q    Type
REMARK                         _______ _______ _______ _____ _____    ______ ____
ROOT
ATOM      1  O   UNL     1      38.517  51.177  43.625  0.00  0.00    +0.000 OA
ATOM      2  N   UNL     1      38.211  51.169  41.356  0.00  0.00    +0.000 N 
ATOM      3  N   UNL     1      39.340  51.420  38.814  0.00  0.00    +0.000 N 
ATOM      4  N   UNL     1      37.442  51.450  37.741  0.00  0.00    +0.000 NA
ATOM      5  N   UNL     1      38.455  51.683  36.842  0.00  0.00    +0.000 NA
ATOM      6  C   UNL     1      39.580  50.675  41.144  0.00  0.00    +0.000 C 
ATOM      7  C   UNL     1      40.244  51.342  39.938  0.00  0.00    +0.000 C 
ATOM      8  C   UNL     1      37.294  51.011  40.218  0.00  0.00    +0.000 C 
ATOM      9  C   UNL     1      37.981  51.298  38.930  0.00  0.00    +0.000 A 
ATOM     10  C   UNL     1      37.770  51.360  42.667  0.00  0.00    +0.000 C 
ATOM     11  C   UNL     1      39.602  51.668  37.493  0.00  0.00    +0.000 A 
ENDROOT
BRANCH  10  12
ATOM     12  C   UNL     1      36.324  51.817  42.853  0.00  0.00    +0.000 C 
BRANCH  12  13
ATOM     13  C   UNL     1      36.143  53.287  43.307  0.00  0.00    +0.000 C 
BRANCH  13  14
ATOM     14  N   UNL     1      37.198  53.603  44.294  0.00  0.00    +0.000 NA
ATOM     15  H   UNL     1      37.893  54.239  43.906  0.00  0.00    +0.000 HD
ATOM     16  H   UNL     1      37.693  52.758  44.573  0.00  0.00    +0.000 HD
ENDBRANCH  13  14
BRANCH  13  17
ATOM     17  C   UNL     1      34.734  53.530  43.913  0.00  0.00    +0.000 C 
BRANCH  17  20
ATOM     18  F   UNL     1      34.955  51.442  45.701  0.00  0.00    +0.000 F 
ATOM     19  F   UNL     1      33.868  56.255  47.963  0.00  0.00    +0.000 F 
ATOM     20  C   UNL     1      34.549  53.760  45.401  0.00  0.00    +0.000 A 
ATOM     21  C   UNL     1      34.680  52.638  46.240  0.00  0.00    +0.000 A 
ATOM     22  C   UNL     1      34.264  54.988  46.006  0.00  0.00    +0.000 A 
ATOM     23  C   UNL     1      34.127  55.070  47.395  0.00  0.00    +0.000 A 
ATOM     24  C   UNL     1      34.533  52.718  47.623  0.00  0.00    +0.000 A 
ATOM     25  C   UNL     1      34.257  53.947  48.207  0.00  0.00    +0.000 A 
ENDBRANCH  17  20
ENDBRANCH  13  17
ENDBRANCH  12  13
ENDBRANCH  10  12
BRANCH  11  26
ATOM     26  C   UNL     1      40.945  51.833  36.872  0.00  0.00    +0.000 C 
BRANCH  26  30
ATOM     27  F   UNL     1      41.405  50.533  34.908  0.00  0.00    +0.000 F 
ATOM     28  F   UNL     1      40.948  49.463  36.751  0.00  0.00    +0.000 F 
ATOM     29  F   UNL     1      42.852  50.502  36.527  0.00  0.00    +0.000 F 
ATOM     30  C   UNL     1      41.525  50.578  36.252  0.00  0.00    +0.000 C 
ENDBRANCH  26  30
ENDBRANCH  11  26
TORSDOF 7
ENDMDL
MODEL 8
REMARK VINA RESULT:      -6.7     20.672     22.971
REMARK  Name = 10222794
REMARK  7 active torsions:
REMARK  status: ('A' for Active; 'I' for Inactive)
REMARK    1  A    between atoms: N_11  and  C_18
REMARK    2  A    between atoms: C_16  and  C_17
REMARK    3  A    between atoms: C_16  and  C_18
REMARK    4  A    between atoms: C_18  and  C_20
REMARK    5  A    between atoms: C_19  and  C_21
REMARK    6  A    between atoms: C_20  and  C_22
REMARK    7  A    between atoms: C_21  and  C_23
REMARK                            x       y       z     vdW  Elec       q    Type
REMARK                         _______ _______ _______ _____ _____    ______ ____
ROOT
ATOM      1  O   UNL     1      50.351  66.628  41.703  0.00  0.00    +0.000 OA
ATOM      2  N   UNL     1      51.688  68.227  40.756  0.00  0.00    +0.000 N 
ATOM      3  N   UNL     1      54.196  69.450  40.638  0.00  0.00    +0.000 N 
ATOM      4  N   UNL     1      53.573  71.086  39.337  0.00  0.00    +0.000 NA
ATOM      5  N   UNL     1      54.876  71.303  39.718  0.00  0.00    +0.000 NA
ATOM      6  C   UNL     1      52.883  67.400  40.977  0.00  0.00    +0.000 C 
ATOM      7  C   UNL     1      54.082  68.241  41.420  0.00  0.00    +0.000 C 
ATOM      8  C   UNL     1      51.838  69.312  39.775  0.00  0.00    +0.000 C 
ATOM      9  C   UNL     1      53.166  69.970  39.901  0.00  0.00    +0.000 A 
ATOM     10  C   UNL     1      50.447  67.717  41.140  0.00  0.00    +0.000 C 
ATOM     11  C   UNL     1      55.250  70.315  40.508  0.00  0.00    +0.000 A 
ENDROOT
BRANCH  10  12
ATOM     12  C   UNL     1      49.219  68.577  40.842  0.00  0.00    +0.000 C 
BRANCH  12  13
ATOM     13  C   UNL     1      48.833  69.592  41.946  0.00  0.00    +0.000 C 
BRANCH  13  14
ATOM     14  N   UNL     1      48.470  68.839  43.166  0.00  0.00    +0.000 NA
ATOM     15  H   UNL     1      48.783  67.871  43.114  0.00  0.00    +0.000 HD
ATOM     16  H   UNL     1      47.458  68.817  43.286  0.00  0.00    +0.000 HD
ENDBRANCH  13  14
BRANCH  13  17
ATOM     17  C   UNL     1      47.661  70.507  41.498  0.00  0.00    +0.000 C 
BRANCH  17  20
ATOM     18  F   UNL     1      47.913  70.660  38.756  0.00  0.00    +0.000 F 
ATOM     19  F   UNL     1      48.381  75.410  41.342  0.00  0.00    +0.000 F 
ATOM     20  C   UNL     1      47.918  71.837  40.815  0.00  0.00    +0.000 A 
ATOM     21  C   UNL     1      48.032  71.822  39.414  0.00  0.00    +0.000 A 
ATOM     22  C   UNL     1      48.047  73.072  41.460  0.00  0.00    +0.000 A 
ATOM     23  C   UNL     1      48.273  74.232  40.713  0.00  0.00    +0.000 A 
ATOM     24  C   UNL     1      48.267  72.976  38.670  0.00  0.00    +0.000 A 
ATOM     25  C   UNL     1      48.386  74.194  39.327  0.00  0.00    +0.000 A 
ENDBRANCH  17  20
ENDBRANCH  13  17
ENDBRANCH  12  13
ENDBRANCH  10  12
BRANCH  11  26
ATOM     26  C   UNL     1      56.607  70.152  41.096  0.00  0.00    +0.000 C 
BRANCH  26  30
ATOM     27  F   UNL     1      58.034  70.607  42.971  0.00  0.00    +0.000 F 
ATOM     28  F   UNL     1      55.919  70.256  43.365  0.00  0.00    +0.000 F 
ATOM     29  F   UNL     1      56.567  72.104  42.406  0.00  0.00    +0.000 F 
ATOM     30  C   UNL     1      56.792  70.767  42.469  0.00  0.00    +0.000 C 
ENDBRANCH  26  30
ENDBRANCH  11  26
TORSDOF 7
ENDMDL
MODEL 9
REMARK VINA RESULT:      -6.3     12.741     15.352
REMARK  Name = 10222794
REMARK  7 active torsions:
REMARK  status: ('A' for Active; 'I' for Inactive)
REMARK    1  A    between atoms: N_11  and  C_18
REMARK    2  A    between atoms: C_16  and  C_17
REMARK    3  A    between atoms: C_16  and  C_18
REMARK    4  A    between atoms: C_18  and  C_20
REMARK    5  A    between atoms: C_19  and  C_21
REMARK    6  A    between atoms: C_20  and  C_22
REMARK    7  A    between atoms: C_21  and  C_23
REMARK                            x       y       z     vdW  Elec       q    Type
REMARK                         _______ _______ _______ _____ _____    ______ ____
ROOT
ATOM      1  O   UNL     1      38.142  51.860  45.373  0.00  0.00    +0.000 OA
ATOM      2  N   UNL     1      36.735  52.793  46.920  0.00  0.00    +0.000 N 
ATOM      3  N   UNL     1      36.441  54.077  49.383  0.00  0.00    +0.000 N 
ATOM      4  N   UNL     1      34.264  53.947  49.430  0.00  0.00    +0.000 NA
ATOM      5  N   UNL     1      34.696  54.470  50.626  0.00  0.00    +0.000 NA
ATOM      6  C   UNL     1      37.785  53.725  47.356  0.00  0.00    +0.000 C 
ATOM      7  C   UNL     1      37.782  53.915  48.874  0.00  0.00    +0.000 C 
ATOM      8  C   UNL     1      35.363  53.155  47.306  0.00  0.00    +0.000 C 
ATOM      9  C   UNL     1      35.321  53.706  48.687  0.00  0.00    +0.000 A 
ATOM     10  C   UNL     1      37.023  51.907  45.880  0.00  0.00    +0.000 C 
ATOM     11  C   UNL     1      36.013  54.544  50.598  0.00  0.00    +0.000 A 
ENDROOT
BRANCH  10  12
ATOM     12  C   UNL     1      35.892  50.993  45.412  0.00  0.00    +0.000 C 
BRANCH  12  13
ATOM     13  C   UNL     1      36.090  49.484  45.701  0.00  0.00    +0.000 C 
BRANCH  13  14
ATOM     14  N   UNL     1      35.587  48.719  44.540  0.00  0.00    +0.000 NA
ATOM     15  H   UNL     1      35.540  49.297  43.703  0.00  0.00    +0.000 HD
ATOM     16  H   UNL     1      34.644  48.377  44.717  0.00  0.00    +0.000 HD
ENDBRANCH  13  14
BRANCH  13  17
ATOM     17  C   UNL     1      35.362  49.049  47.002  0.00  0.00    +0.000 C 
BRANCH  17  20
ATOM     18  F   UNL     1      33.909  50.573  48.782  0.00  0.00    +0.000 F 
ATOM     19  F   UNL     1      38.762  48.966  50.609  0.00  0.00    +0.000 F 
ATOM     20  C   UNL     1      35.924  49.391  48.368  0.00  0.00    +0.000 A 
ATOM     21  C   UNL     1      35.114  50.172  49.212  0.00  0.00    +0.000 A 
ATOM     22  C   UNL     1      37.171  48.993  48.859  0.00  0.00    +0.000 A 
ATOM     23  C   UNL     1      37.570  49.366  50.146  0.00  0.00    +0.000 A 
ATOM     24  C   UNL     1      35.515  50.552  50.491  0.00  0.00    +0.000 A 
ATOM     25  C   UNL     1      36.754  50.143  50.964  0.00  0.00    +0.000 A 
ENDBRANCH  17  20
ENDBRANCH  13  17
ENDBRANCH  12  13
ENDBRANCH  10  12
BRANCH  11  26
ATOM     26  C   UNL     1      36.866  55.100  51.683  0.00  0.00    +0.000 C 
BRANCH  26  30
ATOM     27  F   UNL     1      38.719  53.635  52.106  0.00  0.00    +0.000 F 
ATOM     28  F   UNL     1      36.741  52.984  52.751  0.00  0.00    +0.000 F 
ATOM     29  F   UNL     1      37.762  54.601  53.799  0.00  0.00    +0.000 F 
ATOM     30  C   UNL     1      37.529  54.068  52.573  0.00  0.00    +0.000 C 
ENDBRANCH  26  30
ENDBRANCH  11  26
TORSDOF 7
ENDMDL
