MODEL 1
REMARK VINA RESULT:      -8.1      0.000      0.000
REMARK  Name = 11236256
REMARK  12 active torsions:
REMARK  status: ('A' for Active; 'I' for Inactive)
REMARK    1  A    between atoms: O_4  and  C_22
REMARK    2  A    between atoms: O_4  and  C_23
REMARK    3  A    between atoms: N_8  and  C_14
REMARK    4  A    between atoms: C_14  and  C_16
REMARK    5  A    between atoms: C_14  and  C_19
REMARK    6  A    between atoms: C_16  and  C_17
REMARK    7  A    between atoms: C_18  and  C_20
REMARK    8  A    between atoms: C_19  and  C_21
REMARK    9  A    between atoms: C_20  and  C_24
REMARK   10  A    between atoms: C_22  and  C_27
REMARK   11  A    between atoms: C_22  and  C_28
REMARK   12  A    between atoms: C_22  and  C_29
REMARK                            x       y       z     vdW  Elec       q    Type
REMARK                         _______ _______ _______ _____ _____    ______ ____
ROOT
ATOM      1  C   UNL     1      46.727  75.230  49.540  0.00  0.00    +0.000 C 
ENDROOT
BRANCH   1   3
ATOM      2  O   UNL     1      45.953  76.651  51.976  0.00  0.00    +0.000 OA
ATOM      3  N   UNL     1      45.377  75.552  50.046  0.00  0.00    +0.000 N 
ATOM      4  C   UNL     1      45.114  76.142  51.249  0.00  0.00    +0.000 C 
ATOM      5  H   UNL     1      44.570  75.121  49.613  0.00  0.00    +0.000 HD
BRANCH   4   6
ATOM      6  O   UNL     1      43.794  76.010  51.518  0.00  0.00    +0.000 OA
BRANCH   6   7
ATOM      7  C   UNL     1      42.948  77.164  51.802  0.00  0.00    +0.000 C 
ATOM      8  C   UNL     1      43.411  78.396  51.019  0.00  0.00    +0.000 C 
ATOM      9  C   UNL     1      41.543  76.766  51.309  0.00  0.00    +0.000 C 
ATOM     10  C   UNL     1      42.859  77.460  53.304  0.00  0.00    +0.000 C 
ENDBRANCH   6   7
ENDBRANCH   4   6
ENDBRANCH   1   3
BRANCH   1  11
ATOM     11  C   UNL     1      46.660  73.859  48.825  0.00  0.00    +0.000 C 
BRANCH  11  21
ATOM     12  O   UNL     1      45.105  72.692  50.250  0.00  0.00    +0.000 OA
ATOM     13  N   UNL     1      46.962  71.510  49.597  0.00  0.00    +0.000 N 
ATOM     14  N   UNL     1      48.909  69.920  50.763  0.00  0.00    +0.000 N 
ATOM     15  N   UNL     1      50.516  70.536  49.419  0.00  0.00    +0.000 NA
ATOM     16  N   UNL     1      51.057  69.784  50.436  0.00  0.00    +0.000 NA
ATOM     17  C   UNL     1      46.530  70.279  50.274  0.00  0.00    +0.000 C 
ATOM     18  C   UNL     1      47.570  69.826  51.306  0.00  0.00    +0.000 C 
ATOM     19  C   UNL     1      48.212  71.373  48.831  0.00  0.00    +0.000 C 
ATOM     20  C   UNL     1      49.223  70.633  49.634  0.00  0.00    +0.000 A 
ATOM     21  C   UNL     1      46.162  72.655  49.625  0.00  0.00    +0.000 C 
ATOM     22  C   UNL     1      50.088  69.433  51.258  0.00  0.00    +0.000 A 
BRANCH  22  23
ATOM     23  C   UNL     1      50.251  68.678  52.530  0.00  0.00    +0.000 C 
ATOM     24  C   UNL     1      50.098  69.571  53.750  0.00  0.00    +0.000 C 
ENDBRANCH  22  23
ENDBRANCH  11  21
ENDBRANCH   1  11
BRANCH   1  25
ATOM     25  C   UNL     1      47.194  76.338  48.554  0.00  0.00    +0.000 C 
BRANCH  25  28
ATOM     26  F   UNL     1      50.773  77.839  51.598  0.00  0.00    +0.000 F 
ATOM     27  F   UNL     1      51.301  79.980  49.975  0.00  0.00    +0.000 F 
ATOM     28  C   UNL     1      48.257  77.322  49.010  0.00  0.00    +0.000 A 
ATOM     29  C   UNL     1      49.025  77.136  50.168  0.00  0.00    +0.000 A 
ATOM     30  C   UNL     1      48.561  78.421  48.179  0.00  0.00    +0.000 A 
ATOM     31  C   UNL     1      50.044  78.037  50.489  0.00  0.00    +0.000 A 
ATOM     32  C   UNL     1      49.582  79.320  48.506  0.00  0.00    +0.000 A 
ATOM     33  C   UNL     1      50.316  79.122  49.668  0.00  0.00    +0.000 A 
ENDBRANCH  25  28
ENDBRANCH   1  25
TORSDOF 8
ENDMDL
MODEL 2
REMARK VINA RESULT:      -7.9     13.363     16.181
REMARK  Name = 11236256
REMARK  12 active torsions:
REMARK  status: ('A' for Active; 'I' for Inactive)
REMARK    1  A    between atoms: O_4  and  C_22
REMARK    2  A    between atoms: O_4  and  C_23
REMARK    3  A    between atoms: N_8  and  C_14
REMARK    4  A    between atoms: C_14  and  C_16
REMARK    5  A    between atoms: C_14  and  C_19
REMARK    6  A    between atoms: C_16  and  C_17
REMARK    7  A    between atoms: C_18  and  C_20
REMARK    8  A    between atoms: C_19  and  C_21
REMARK    9  A    between atoms: C_20  and  C_24
REMARK   10  A    between atoms: C_22  and  C_27
REMARK   11  A    between atoms: C_22  and  C_28
REMARK   12  A    between atoms: C_22  and  C_29
REMARK                            x       y       z     vdW  Elec       q    Type
REMARK                         _______ _______ _______ _____ _____    ______ ____
ROOT
ATOM      1  C   UNL     1      55.871  70.509  38.353  0.00  0.00    +0.000 C 
ENDROOT
BRANCH   1   3
ATOM      2  O   UNL     1      57.569  70.685  35.979  0.00  0.00    +0.000 OA
ATOM      3  N   UNL     1      55.799  69.742  37.092  0.00  0.00    +0.000 N 
ATOM      4  C   UNL     1      56.585  69.963  35.998  0.00  0.00    +0.000 C 
ATOM      5  H   UNL     1      54.986  69.169  36.908  0.00  0.00    +0.000 HD
BRANCH   4   6
ATOM      6  O   UNL     1      56.055  69.301  34.943  0.00  0.00    +0.000 OA
BRANCH   6   7
ATOM      7  C   UNL     1      56.713  68.141  34.354  0.00  0.00    +0.000 C 
ATOM      8  C   UNL     1      55.699  67.052  33.991  0.00  0.00    +0.000 C 
ATOM      9  C   UNL     1      57.364  68.659  33.056  0.00  0.00    +0.000 C 
ATOM     10  C   UNL     1      57.825  67.587  35.254  0.00  0.00    +0.000 C 
ENDBRANCH   6   7
ENDBRANCH   4   6
ENDBRANCH   1   3
BRANCH   1  11
ATOM     11  C   UNL     1      54.432  70.673  38.900  0.00  0.00    +0.000 C 
BRANCH  11  21
ATOM     12  O   UNL     1      53.650  71.702  36.866  0.00  0.00    +0.000 OA
ATOM     13  N   UNL     1      52.032  71.074  38.370  0.00  0.00    +0.000 N 
ATOM     14  N   UNL     1      49.778  72.171  39.550  0.00  0.00    +0.000 N 
ATOM     15  N   UNL     1      50.015  71.137  41.458  0.00  0.00    +0.000 NA
ATOM     16  N   UNL     1      49.012  72.069  41.585  0.00  0.00    +0.000 NA
ATOM     17  C   UNL     1      50.927  71.484  37.491  0.00  0.00    +0.000 C 
ATOM     18  C   UNL     1      50.045  72.537  38.175  0.00  0.00    +0.000 C 
ATOM     19  C   UNL     1      51.603  70.441  39.627  0.00  0.00    +0.000 C 
ATOM     20  C   UNL     1      50.488  71.219  40.235  0.00  0.00    +0.000 A 
ATOM     21  C   UNL     1      53.358  71.202  37.950  0.00  0.00    +0.000 C 
ATOM     22  C   UNL     1      48.886  72.708  40.439  0.00  0.00    +0.000 A 
BRANCH  22  23
ATOM     23  C   UNL     1      47.968  73.847  40.168  0.00  0.00    +0.000 C 
ATOM     24  C   UNL     1      48.480  75.150  40.760  0.00  0.00    +0.000 C 
ENDBRANCH  22  23
ENDBRANCH  11  21
ENDBRANCH   1  11
BRANCH   1  25
ATOM     25  C   UNL     1      56.762  69.751  39.377  0.00  0.00    +0.000 C 
BRANCH  25  28
ATOM     26  F   UNL     1      58.874  72.574  42.826  0.00  0.00    +0.000 F 
ATOM     27  F   UNL     1      61.334  72.177  41.691  0.00  0.00    +0.000 F 
ATOM     28  C   UNL     1      57.947  70.474  39.993  0.00  0.00    +0.000 A 
ATOM     29  C   UNL     1      57.846  71.258  41.151  0.00  0.00    +0.000 A 
ATOM     30  C   UNL     1      59.227  70.267  39.437  0.00  0.00    +0.000 A 
ATOM     31  C   UNL     1      58.989  71.832  41.714  0.00  0.00    +0.000 A 
ATOM     32  C   UNL     1      60.368  70.844  40.006  0.00  0.00    +0.000 A 
ATOM     33  C   UNL     1      60.238  71.631  41.143  0.00  0.00    +0.000 A 
ENDBRANCH  25  28
ENDBRANCH   1  25
TORSDOF 8
ENDMDL
MODEL 3
REMARK VINA RESULT:      -7.9     26.562     28.967
REMARK  Name = 11236256
REMARK  12 active torsions:
REMARK  status: ('A' for Active; 'I' for Inactive)
REMARK    1  A    between atoms: O_4  and  C_22
REMARK    2  A    between atoms: O_4  and  C_23
REMARK    3  A    between atoms: N_8  and  C_14
REMARK    4  A    between atoms: C_14  and  C_16
REMARK    5  A    between atoms: C_14  and  C_19
REMARK    6  A    between atoms: C_16  and  C_17
REMARK    7  A    between atoms: C_18  and  C_20
REMARK    8  A    between atoms: C_19  and  C_21
REMARK    9  A    between atoms: C_20  and  C_24
REMARK   10  A    between atoms: C_22  and  C_27
REMARK   11  A    between atoms: C_22  and  C_28
REMARK   12  A    between atoms: C_22  and  C_29
REMARK                            x       y       z     vdW  Elec       q    Type
REMARK                         _______ _______ _______ _____ _____    ______ ____
ROOT
ATOM      1  C   UNL     1      40.263  50.646  36.437  0.00  0.00    +0.000 C 
ENDROOT
BRANCH   1   3
ATOM      2  O   UNL     1      42.469  50.844  34.526  0.00  0.00    +0.000 OA
ATOM      3  N   UNL     1      41.361  51.633  36.374  0.00  0.00    +0.000 N 
ATOM      4  C   UNL     1      42.403  51.587  35.493  0.00  0.00    +0.000 C 
ATOM      5  H   UNL     1      41.507  52.261  37.154  0.00  0.00    +0.000 HD
BRANCH   4   6
ATOM      6  O   UNL     1      43.360  52.451  35.908  0.00  0.00    +0.000 OA
BRANCH   6   7
ATOM      7  C   UNL     1      44.634  51.986  36.445  0.00  0.00    +0.000 C 
ATOM      8  C   UNL     1      45.694  51.881  35.344  0.00  0.00    +0.000 C 
ATOM      9  C   UNL     1      45.071  53.071  37.448  0.00  0.00    +0.000 C 
ATOM     10  C   UNL     1      44.492  50.663  37.207  0.00  0.00    +0.000 C 
ENDBRANCH   6   7
ENDBRANCH   4   6
ENDBRANCH   1   3
BRANCH   1  11
ATOM     11  C   UNL     1      39.932  50.387  37.927  0.00  0.00    +0.000 C 
BRANCH  11  21
ATOM     12  O   UNL     1      41.897  49.051  38.328  0.00  0.00    +0.000 OA
ATOM     13  N   UNL     1      40.958  50.049  40.171  0.00  0.00    +0.000 N 
ATOM     14  N   UNL     1      40.198  49.335  42.738  0.00  0.00    +0.000 N 
ATOM     15  N   UNL     1      38.487  50.688  42.834  0.00  0.00    +0.000 NA
ATOM     16  N   UNL     1      38.457  49.862  43.934  0.00  0.00    +0.000 NA
ATOM     17  C   UNL     1      41.999  49.553  41.083  0.00  0.00    +0.000 C 
ATOM     18  C   UNL     1      41.387  48.704  42.204  0.00  0.00    +0.000 C 
ATOM     19  C   UNL     1      39.965  50.930  40.806  0.00  0.00    +0.000 C 
ATOM     20  C   UNL     1      39.528  50.351  42.106  0.00  0.00    +0.000 A 
ATOM     21  C   UNL     1      41.015  49.761  38.805  0.00  0.00    +0.000 C 
ATOM     22  C   UNL     1      39.477  49.031  43.861  0.00  0.00    +0.000 A 
BRANCH  22  23
ATOM     23  C   UNL     1      39.771  47.922  44.808  0.00  0.00    +0.000 C 
ATOM     24  C   UNL     1      38.616  47.659  45.760  0.00  0.00    +0.000 C 
ENDBRANCH  22  23
ENDBRANCH  11  21
ENDBRANCH   1  11
BRANCH   1  25
ATOM     25  C   UNL     1      39.018  51.199  35.688  0.00  0.00    +0.000 C 
BRANCH  25  28
ATOM     26  F   UNL     1      35.795  47.478  35.395  0.00  0.00    +0.000 F 
ATOM     27  F   UNL     1      34.012  48.856  36.952  0.00  0.00    +0.000 F 
ATOM     28  C   UNL     1      37.665  50.559  35.944  0.00  0.00    +0.000 A 
ATOM     29  C   UNL     1      37.329  49.275  35.493  0.00  0.00    +0.000 A 
ATOM     30  C   UNL     1      36.739  51.242  36.761  0.00  0.00    +0.000 A 
ATOM     31  C   UNL     1      36.096  48.710  35.831  0.00  0.00    +0.000 A 
ATOM     32  C   UNL     1      35.507  50.671  37.097  0.00  0.00    +0.000 A 
ATOM     33  C   UNL     1      35.191  49.404  36.622  0.00  0.00    +0.000 A 
ENDBRANCH  25  28
ENDBRANCH   1  25
TORSDOF 8
ENDMDL
MODEL 4
REMARK VINA RESULT:      -7.8     12.001     14.679
REMARK  Name = 11236256
REMARK  12 active torsions:
REMARK  status: ('A' for Active; 'I' for Inactive)
REMARK    1  A    between atoms: O_4  and  C_22
REMARK    2  A    between atoms: O_4  and  C_23
REMARK    3  A    between atoms: N_8  and  C_14
REMARK    4  A    between atoms: C_14  and  C_16
REMARK    5  A    between atoms: C_14  and  C_19
REMARK    6  A    between atoms: C_16  and  C_17
REMARK    7  A    between atoms: C_18  and  C_20
REMARK    8  A    between atoms: C_19  and  C_21
REMARK    9  A    between atoms: C_20  and  C_24
REMARK   10  A    between atoms: C_22  and  C_27
REMARK   11  A    between atoms: C_22  and  C_28
REMARK   12  A    between atoms: C_22  and  C_29
REMARK                            x       y       z     vdW  Elec       q    Type
REMARK                         _______ _______ _______ _____ _____    ______ ____
ROOT
ATOM      1  C   UNL     1      52.963  70.120  40.976  0.00  0.00    +0.000 C 
ENDROOT
BRANCH   1   3
ATOM      2  O   UNL     1      53.424  69.570  38.141  0.00  0.00    +0.000 OA
ATOM      3  N   UNL     1      53.632  70.956  39.957  0.00  0.00    +0.000 N 
ATOM      4  C   UNL     1      53.883  70.569  38.672  0.00  0.00    +0.000 C 
ATOM      5  H   UNL     1      54.152  71.773  40.251  0.00  0.00    +0.000 HD
BRANCH   4   6
ATOM      6  O   UNL     1      54.762  71.439  38.121  0.00  0.00    +0.000 OA
BRANCH   6   7
ATOM      7  C   UNL     1      56.173  71.106  37.958  0.00  0.00    +0.000 C 
ATOM      8  C   UNL     1      56.558  71.034  36.477  0.00  0.00    +0.000 C 
ATOM      9  C   UNL     1      56.942  72.271  38.611  0.00  0.00    +0.000 C 
ATOM     10  C   UNL     1      56.551  69.815  38.694  0.00  0.00    +0.000 C 
ENDBRANCH   6   7
ENDBRANCH   4   6
ENDBRANCH   1   3
BRANCH   1  11
ATOM     11  C   UNL     1      53.886  70.039  42.216  0.00  0.00    +0.000 C 
BRANCH  11  21
ATOM     12  O   UNL     1      54.512  72.347  42.515  0.00  0.00    +0.000 OA
ATOM     13  N   UNL     1      56.222  70.816  42.589  0.00  0.00    +0.000 N 
ATOM     14  N   UNL     1      58.744  70.487  41.487  0.00  0.00    +0.000 N 
ATOM     15  N   UNL     1      58.633  68.311  41.357  0.00  0.00    +0.000 NA
ATOM     16  N   UNL     1      59.761  68.734  40.692  0.00  0.00    +0.000 NA
ATOM     17  C   UNL     1      57.242  71.832  42.889  0.00  0.00    +0.000 C 
ATOM     18  C   UNL     1      58.342  71.838  41.819  0.00  0.00    +0.000 C 
ATOM     19  C   UNL     1      56.731  69.435  42.571  0.00  0.00    +0.000 C 
ATOM     20  C   UNL     1      58.013  69.374  41.815  0.00  0.00    +0.000 A 
ATOM     21  C   UNL     1      54.880  71.177  42.446  0.00  0.00    +0.000 C 
ATOM     22  C   UNL     1      59.812  70.050  40.752  0.00  0.00    +0.000 A 
BRANCH  22  23
ATOM     23  C   UNL     1      60.829  70.916  40.096  0.00  0.00    +0.000 C 
ATOM     24  C   UNL     1      61.803  71.516  41.096  0.00  0.00    +0.000 C 
ENDBRANCH  22  23
ENDBRANCH  11  21
ENDBRANCH   1  11
BRANCH   1  25
ATOM     25  C   UNL     1      51.594  70.754  41.354  0.00  0.00    +0.000 C 
BRANCH  25  28
ATOM     26  F   UNL     1      48.310  73.179  38.586  0.00  0.00    +0.000 F 
ATOM     27  F   UNL     1      47.723  70.884  37.213  0.00  0.00    +0.000 F 
ATOM     28  C   UNL     1      50.503  70.823  40.299  0.00  0.00    +0.000 A 
ATOM     29  C   UNL     1      49.855  72.015  39.948  0.00  0.00    +0.000 A 
ATOM     30  C   UNL     1      50.200  69.658  39.564  0.00  0.00    +0.000 A 
ATOM     31  C   UNL     1      48.916  72.027  38.912  0.00  0.00    +0.000 A 
ATOM     32  C   UNL     1      49.259  69.676  38.528  0.00  0.00    +0.000 A 
ATOM     33  C   UNL     1      48.617  70.867  38.212  0.00  0.00    +0.000 A 
ENDBRANCH  25  28
ENDBRANCH   1  25
TORSDOF 8
ENDMDL
MODEL 5
REMARK VINA RESULT:      -7.6     24.959     28.291
REMARK  Name = 11236256
REMARK  12 active torsions:
REMARK  status: ('A' for Active; 'I' for Inactive)
REMARK    1  A    between atoms: O_4  and  C_22
REMARK    2  A    between atoms: O_4  and  C_23
REMARK    3  A    between atoms: N_8  and  C_14
REMARK    4  A    between atoms: C_14  and  C_16
REMARK    5  A    between atoms: C_14  and  C_19
REMARK    6  A    between atoms: C_16  and  C_17
REMARK    7  A    between atoms: C_18  and  C_20
REMARK    8  A    between atoms: C_19  and  C_21
REMARK    9  A    between atoms: C_20  and  C_24
REMARK   10  A    between atoms: C_22  and  C_27
REMARK   11  A    between atoms: C_22  and  C_28
REMARK   12  A    between atoms: C_22  and  C_29
REMARK                            x       y       z     vdW  Elec       q    Type
REMARK                         _______ _______ _______ _____ _____    ______ ____
ROOT
ATOM      1  C   UNL     1      38.872  51.161  36.985  0.00  0.00    +0.000 C 
ENDROOT
BRANCH   1   3
ATOM      2  O   UNL     1      38.530  52.401  39.611  0.00  0.00    +0.000 OA
ATOM      3  N   UNL     1      39.082  50.581  38.328  0.00  0.00    +0.000 N 
ATOM      4  C   UNL     1      38.985  51.273  39.501  0.00  0.00    +0.000 C 
ATOM      5  H   UNL     1      39.548  49.687  38.413  0.00  0.00    +0.000 HD
BRANCH   4   6
ATOM      6  O   UNL     1      39.529  50.526  40.491  0.00  0.00    +0.000 OA
BRANCH   6   7
ATOM      7  C   UNL     1      39.211  50.762  41.895  0.00  0.00    +0.000 C 
ATOM      8  C   UNL     1      37.697  50.766  42.128  0.00  0.00    +0.000 C 
ATOM      9  C   UNL     1      39.824  49.570  42.655  0.00  0.00    +0.000 C 
ATOM     10  C   UNL     1      39.858  52.048  42.426  0.00  0.00    +0.000 C 
ENDBRANCH   6   7
ENDBRANCH   4   6
ENDBRANCH   1   3
BRANCH   1  11
ATOM     11  C   UNL     1      40.226  51.716  36.482  0.00  0.00    +0.000 C 
BRANCH  11  21
ATOM     12  O   UNL     1      41.443  49.680  36.909  0.00  0.00    +0.000 OA
ATOM     13  N   UNL     1      42.689  51.608  36.838  0.00  0.00    +0.000 N 
ATOM     14  N   UNL     1      44.645  52.855  38.354  0.00  0.00    +0.000 N 
ATOM     15  N   UNL     1      43.987  54.889  37.914  0.00  0.00    +0.000 NA
ATOM     16  N   UNL     1      44.950  54.941  38.896  0.00  0.00    +0.000 NA
ATOM     17  C   UNL     1      43.963  50.901  37.032  0.00  0.00    +0.000 C 
ATOM     18  C   UNL     1      44.687  51.409  38.286  0.00  0.00    +0.000 C 
ATOM     19  C   UNL     1      42.827  53.058  36.627  0.00  0.00    +0.000 C 
ATOM     20  C   UNL     1      43.792  53.626  37.608  0.00  0.00    +0.000 A 
ATOM     21  C   UNL     1      41.487  50.900  36.766  0.00  0.00    +0.000 C 
ATOM     22  C   UNL     1      45.328  53.710  39.175  0.00  0.00    +0.000 A 
BRANCH  22  23
ATOM     23  C   UNL     1      46.296  53.311  40.233  0.00  0.00    +0.000 C 
ATOM     24  C   UNL     1      47.726  53.672  39.867  0.00  0.00    +0.000 C 
ENDBRANCH  22  23
ENDBRANCH  11  21
ENDBRANCH   1  11
BRANCH   1  25
ATOM     25  C   UNL     1      38.338  50.065  36.020  0.00  0.00    +0.000 C 
BRANCH  25  28
ATOM     26  F   UNL     1      34.679  46.785  35.596  0.00  0.00    +0.000 F 
ATOM     27  F   UNL     1      32.919  48.553  36.724  0.00  0.00    +0.000 F 
ATOM     28  C   UNL     1      36.884  49.639  36.127  0.00  0.00    +0.000 A 
ATOM     29  C   UNL     1      36.430  48.367  35.755  0.00  0.00    +0.000 A 
ATOM     30  C   UNL     1      35.964  50.527  36.725  0.00  0.00    +0.000 A 
ATOM     31  C   UNL     1      35.093  48.010  35.953  0.00  0.00    +0.000 A 
ATOM     32  C   UNL     1      34.627  50.164  36.922  0.00  0.00    +0.000 A 
ATOM     33  C   UNL     1      34.199  48.902  36.527  0.00  0.00    +0.000 A 
ENDBRANCH  25  28
ENDBRANCH   1  25
TORSDOF 8
ENDMDL
MODEL 6
REMARK VINA RESULT:      -7.6     25.035     28.551
REMARK  Name = 11236256
REMARK  12 active torsions:
REMARK  status: ('A' for Active; 'I' for Inactive)
REMARK    1  A    between atoms: O_4  and  C_22
REMARK    2  A    between atoms: O_4  and  C_23
REMARK    3  A    between atoms: N_8  and  C_14
REMARK    4  A    between atoms: C_14  and  C_16
REMARK    5  A    between atoms: C_14  and  C_19
REMARK    6  A    between atoms: C_16  and  C_17
REMARK    7  A    between atoms: C_18  and  C_20
REMARK    8  A    between atoms: C_19  and  C_21
REMARK    9  A    between atoms: C_20  and  C_24
REMARK   10  A    between atoms: C_22  and  C_27
REMARK   11  A    between atoms: C_22  and  C_28
REMARK   12  A    between atoms: C_22  and  C_29
REMARK                            x       y       z     vdW  Elec       q    Type
REMARK                         _______ _______ _______ _____ _____    ______ ____
ROOT
ATOM      1  C   UNL     1      39.310  50.716  36.777  0.00  0.00    +0.000 C 
ENDROOT
BRANCH   1   3
ATOM      2  O   UNL     1      39.302  50.606  39.700  0.00  0.00    +0.000 OA
ATOM      3  N   UNL     1      40.420  50.417  37.705  0.00  0.00    +0.000 N 
ATOM      4  C   UNL     1      40.339  50.481  39.067  0.00  0.00    +0.000 C 
ATOM      5  H   UNL     1      41.367  50.382  37.349  0.00  0.00    +0.000 HD
BRANCH   4   6
ATOM      6  O   UNL     1      41.592  50.445  39.578  0.00  0.00    +0.000 OA
BRANCH   6   7
ATOM      7  C   UNL     1      42.153  49.227  40.153  0.00  0.00    +0.000 C 
ATOM      8  C   UNL     1      41.980  48.036  39.206  0.00  0.00    +0.000 C 
ATOM      9  C   UNL     1      43.659  49.513  40.316  0.00  0.00    +0.000 C 
ATOM     10  C   UNL     1      41.574  48.923  41.540  0.00  0.00    +0.000 C 
ENDBRANCH   6   7
ENDBRANCH   4   6
ENDBRANCH   1   3
BRANCH   1  11
ATOM     11  C   UNL     1      39.891  51.471  35.558  0.00  0.00    +0.000 C 
BRANCH  11  21
ATOM     12  O   UNL     1      41.963  50.508  34.789  0.00  0.00    +0.000 OA
ATOM     13  N   UNL     1      42.119  52.551  35.828  0.00  0.00    +0.000 N 
ATOM     14  N   UNL     1      43.646  53.745  37.809  0.00  0.00    +0.000 N 
ATOM     15  N   UNL     1      42.042  55.014  38.573  0.00  0.00    +0.000 NA
ATOM     16  N   UNL     1      43.116  55.098  39.429  0.00  0.00    +0.000 NA
ATOM     17  C   UNL     1      43.570  52.653  35.611  0.00  0.00    +0.000 C 
ATOM     18  C   UNL     1      44.315  52.796  36.944  0.00  0.00    +0.000 C 
ATOM     19  C   UNL     1      41.519  53.734  36.465  0.00  0.00    +0.000 C 
ATOM     20  C   UNL     1      42.360  54.178  37.610  0.00  0.00    +0.000 A 
ATOM     21  C   UNL     1      41.406  51.447  35.354  0.00  0.00    +0.000 C 
ATOM     22  C   UNL     1      44.073  54.313  38.978  0.00  0.00    +0.000 A 
BRANCH  22  23
ATOM     23  C   UNL     1      45.378  54.052  39.645  0.00  0.00    +0.000 C 
ATOM     24  C   UNL     1      45.211  53.295  40.952  0.00  0.00    +0.000 C 
ENDBRANCH  22  23
ENDBRANCH  11  21
ENDBRANCH   1  11
BRANCH   1  25
ATOM     25  C   UNL     1      38.632  49.391  36.328  0.00  0.00    +0.000 C 
BRANCH  25  28
ATOM     26  F   UNL     1      34.105  51.237  36.984  0.00  0.00    +0.000 F 
ATOM     27  F   UNL     1      32.998  48.777  36.512  0.00  0.00    +0.000 F 
ATOM     28  C   UNL     1      37.124  49.262  36.454  0.00  0.00    +0.000 A 
ATOM     29  C   UNL     1      36.282  50.352  36.715  0.00  0.00    +0.000 A 
ATOM     30  C   UNL     1      36.530  48.008  36.194  0.00  0.00    +0.000 A 
ATOM     31  C   UNL     1      34.895  50.180  36.739  0.00  0.00    +0.000 A 
ATOM     32  C   UNL     1      35.141  47.843  36.218  0.00  0.00    +0.000 A 
ATOM     33  C   UNL     1      34.330  48.936  36.498  0.00  0.00    +0.000 A 
ENDBRANCH  25  28
ENDBRANCH   1  25
TORSDOF 8
ENDMDL
MODEL 7
REMARK VINA RESULT:      -7.6     25.868     28.601
REMARK  Name = 11236256
REMARK  12 active torsions:
REMARK  status: ('A' for Active; 'I' for Inactive)
REMARK    1  A    between atoms: O_4  and  C_22
REMARK    2  A    between atoms: O_4  and  C_23
REMARK    3  A    between atoms: N_8  and  C_14
REMARK    4  A    between atoms: C_14  and  C_16
REMARK    5  A    between atoms: C_14  and  C_19
REMARK    6  A    between atoms: C_16  and  C_17
REMARK    7  A    between atoms: C_18  and  C_20
REMARK    8  A    between atoms: C_19  and  C_21
REMARK    9  A    between atoms: C_20  and  C_24
REMARK   10  A    between atoms: C_22  and  C_27
REMARK   11  A    between atoms: C_22  and  C_28
REMARK   12  A    between atoms: C_22  and  C_29
REMARK                            x       y       z     vdW  Elec       q    Type
REMARK                         _______ _______ _______ _____ _____    ______ ____
ROOT
ATOM      1  C   UNL     1      39.706  50.727  37.177  0.00  0.00    +0.000 C 
ENDROOT
BRANCH   1   3
ATOM      2  O   UNL     1      39.789  52.712  39.323  0.00  0.00    +0.000 OA
ATOM      3  N   UNL     1      39.437  50.556  38.620  0.00  0.00    +0.000 N 
ATOM      4  C   UNL     1      39.594  51.531  39.564  0.00  0.00    +0.000 C 
ATOM      5  H   UNL     1      39.354  49.623  39.001  0.00  0.00    +0.000 HD
BRANCH   4   6
ATOM      6  O   UNL     1      39.558  50.957  40.790  0.00  0.00    +0.000 OA
BRANCH   6   7
ATOM      7  C   UNL     1      38.449  51.181  41.711  0.00  0.00    +0.000 C 
ATOM      8  C   UNL     1      37.101  50.926  41.028  0.00  0.00    +0.000 C 
ATOM      9  C   UNL     1      38.637  50.140  42.832  0.00  0.00    +0.000 C 
ATOM     10  C   UNL     1      38.496  52.577  42.345  0.00  0.00    +0.000 C 
ENDBRANCH   6   7
ENDBRANCH   4   6
ENDBRANCH   1   3
BRANCH   1  11
ATOM     11  C   UNL     1      41.236  50.655  36.959  0.00  0.00    +0.000 C 
BRANCH  11  21
ATOM     12  O   UNL     1      41.341  50.086  34.619  0.00  0.00    +0.000 OA
ATOM     13  N   UNL     1      42.743  51.766  35.317  0.00  0.00    +0.000 N 
ATOM     14  N   UNL     1      45.413  52.464  35.057  0.00  0.00    +0.000 N 
ATOM     15  N   UNL     1      45.590  53.358  37.041  0.00  0.00    +0.000 NA
ATOM     16  N   UNL     1      46.844  53.275  36.482  0.00  0.00    +0.000 NA
ATOM     17  C   UNL     1      43.259  52.022  33.964  0.00  0.00    +0.000 C 
ATOM     18  C   UNL     1      44.781  51.840  33.913  0.00  0.00    +0.000 C 
ATOM     19  C   UNL     1      43.263  52.681  36.346  0.00  0.00    +0.000 C 
ATOM     20  C   UNL     1      44.734  52.847  36.185  0.00  0.00    +0.000 A 
ATOM     21  C   UNL     1      41.766  50.791  35.532  0.00  0.00    +0.000 C 
ATOM     22  C   UNL     1      46.737  52.713  35.295  0.00  0.00    +0.000 A 
BRANCH  22  23
ATOM     23  C   UNL     1      47.864  52.366  34.387  0.00  0.00    +0.000 C 
ATOM     24  C   UNL     1      49.188  52.929  34.875  0.00  0.00    +0.000 C 
ENDBRANCH  22  23
ENDBRANCH  11  21
ENDBRANCH   1  11
BRANCH   1  25
ATOM     25  C   UNL     1      38.986  49.606  36.376  0.00  0.00    +0.000 C 
BRANCH  25  28
ATOM     26  F   UNL     1      34.453  51.455  36.982  0.00  0.00    +0.000 F 
ATOM     27  F   UNL     1      33.352  48.989  36.529  0.00  0.00    +0.000 F 
ATOM     28  C   UNL     1      37.477  49.477  36.492  0.00  0.00    +0.000 A 
ATOM     29  C   UNL     1      36.633  50.569  36.737  0.00  0.00    +0.000 A 
ATOM     30  C   UNL     1      36.886  48.220  36.242  0.00  0.00    +0.000 A 
ATOM     31  C   UNL     1      35.246  50.397  36.753  0.00  0.00    +0.000 A 
ATOM     32  C   UNL     1      35.497  48.054  36.259  0.00  0.00    +0.000 A 
ATOM     33  C   UNL     1      34.683  49.149  36.522  0.00  0.00    +0.000 A 
ENDBRANCH  25  28
ENDBRANCH   1  25
TORSDOF 8
ENDMDL
MODEL 8
REMARK VINA RESULT:      -7.1     26.340     27.847
REMARK  Name = 11236256
REMARK  12 active torsions:
REMARK  status: ('A' for Active; 'I' for Inactive)
REMARK    1  A    between atoms: O_4  and  C_22
REMARK    2  A    between atoms: O_4  and  C_23
REMARK    3  A    between atoms: N_8  and  C_14
REMARK    4  A    between atoms: C_14  and  C_16
REMARK    5  A    between atoms: C_14  and  C_19
REMARK    6  A    between atoms: C_16  and  C_17
REMARK    7  A    between atoms: C_18  and  C_20
REMARK    8  A    between atoms: C_19  and  C_21
REMARK    9  A    between atoms: C_20  and  C_24
REMARK   10  A    between atoms: C_22  and  C_27
REMARK   11  A    between atoms: C_22  and  C_28
REMARK   12  A    between atoms: C_22  and  C_29
REMARK                            x       y       z     vdW  Elec       q    Type
REMARK                         _______ _______ _______ _____ _____    ______ ____
ROOT
ATOM      1  C   UNL     1      42.059  51.136  38.135  0.00  0.00    +0.000 C 
ENDROOT
BRANCH   1   3
ATOM      2  O   UNL     1      41.186  50.045  35.566  0.00  0.00    +0.000 OA
ATOM      3  N   UNL     1      40.921  50.241  37.836  0.00  0.00    +0.000 N 
ATOM      4  C   UNL     1      40.536  49.859  36.583  0.00  0.00    +0.000 C 
ATOM      5  H   UNL     1      40.228  50.067  38.552  0.00  0.00    +0.000 HD
BRANCH   4   6
ATOM      6  O   UNL     1      39.304  49.302  36.659  0.00  0.00    +0.000 OA
BRANCH   6   7
ATOM      7  C   UNL     1      38.113  50.009  36.201  0.00  0.00    +0.000 C 
ATOM      8  C   UNL     1      36.989  49.030  35.849  0.00  0.00    +0.000 C 
ATOM      9  C   UNL     1      37.663  50.864  37.402  0.00  0.00    +0.000 C 
ATOM     10  C   UNL     1      38.415  50.954  35.031  0.00  0.00    +0.000 C 
ENDBRANCH   6   7
ENDBRANCH   4   6
ENDBRANCH   1   3
BRANCH   1  11
ATOM     11  C   UNL     1      41.835  51.748  39.539  0.00  0.00    +0.000 C 
BRANCH  11  21
ATOM     12  O   UNL     1      39.663  52.740  39.868  0.00  0.00    +0.000 OA
ATOM     13  N   UNL     1      39.993  50.682  40.831  0.00  0.00    +0.000 N 
ATOM     14  N   UNL     1      39.584  49.466  43.288  0.00  0.00    +0.000 N 
ATOM     15  N   UNL     1      41.339  48.173  43.176  0.00  0.00    +0.000 NA
ATOM     16  N   UNL     1      40.805  48.082  44.441  0.00  0.00    +0.000 NA
ATOM     17  C   UNL     1      38.614  50.595  41.334  0.00  0.00    +0.000 C 
ATOM     18  C   UNL     1      38.596  50.435  42.860  0.00  0.00    +0.000 C 
ATOM     19  C   UNL     1      40.808  49.484  41.090  0.00  0.00    +0.000 C 
ATOM     20  C   UNL     1      40.611  49.026  42.493  0.00  0.00    +0.000 A 
ATOM     21  C   UNL     1      40.408  51.788  40.086  0.00  0.00    +0.000 C 
ATOM     22  C   UNL     1      39.760  48.881  44.512  0.00  0.00    +0.000 A 
BRANCH  22  23
ATOM     23  C   UNL     1      38.939  49.141  45.726  0.00  0.00    +0.000 C 
ATOM     24  C   UNL     1      37.725  48.232  45.802  0.00  0.00    +0.000 C 
ENDBRANCH  22  23
ENDBRANCH  11  21
ENDBRANCH   1  11
BRANCH   1  25
ATOM     25  C   UNL     1      43.385  50.326  38.096  0.00  0.00    +0.000 C 
BRANCH  25  28
ATOM     26  F   UNL     1      48.175  51.007  37.135  0.00  0.00    +0.000 F 
ATOM     27  F   UNL     1      47.566  52.084  34.693  0.00  0.00    +0.000 F 
ATOM     28  C   UNL     1      44.534  50.843  37.248  0.00  0.00    +0.000 A 
ATOM     29  C   UNL     1      45.879  50.717  37.624  0.00  0.00    +0.000 A 
ATOM     30  C   UNL     1      44.245  51.383  35.977  0.00  0.00    +0.000 A 
ATOM     31  C   UNL     1      46.893  51.142  36.761  0.00  0.00    +0.000 A 
ATOM     32  C   UNL     1      45.265  51.805  35.117  0.00  0.00    +0.000 A 
ATOM     33  C   UNL     1      46.589  51.686  35.521  0.00  0.00    +0.000 A 
ENDBRANCH  25  28
ENDBRANCH   1  25
TORSDOF 8
ENDMDL
MODEL 9
REMARK VINA RESULT:      -6.9     26.395     27.521
REMARK  Name = 11236256
REMARK  12 active torsions:
REMARK  status: ('A' for Active; 'I' for Inactive)
REMARK    1  A    between atoms: O_4  and  C_22
REMARK    2  A    between atoms: O_4  and  C_23
REMARK    3  A    between atoms: N_8  and  C_14
REMARK    4  A    between atoms: C_14  and  C_16
REMARK    5  A    between atoms: C_14  and  C_19
REMARK    6  A    between atoms: C_16  and  C_17
REMARK    7  A    between atoms: C_18  and  C_20
REMARK    8  A    between atoms: C_19  and  C_21
REMARK    9  A    between atoms: C_20  and  C_24
REMARK   10  A    between atoms: C_22  and  C_27
REMARK   11  A    between atoms: C_22  and  C_28
REMARK   12  A    between atoms: C_22  and  C_29
REMARK                            x       y       z     vdW  Elec       q    Type
REMARK                         _______ _______ _______ _____ _____    ______ ____
ROOT
ATOM      1  C   UNL     1      44.365  51.236  38.810  0.00  0.00    +0.000 C 
ENDROOT
BRANCH   1   3
ATOM      2  O   UNL     1      42.141  52.707  37.610  0.00  0.00    +0.000 OA
ATOM      3  N   UNL     1      43.042  50.741  38.375  0.00  0.00    +0.000 N 
ATOM      4  C   UNL     1      42.029  51.528  37.908  0.00  0.00    +0.000 C 
ATOM      5  H   UNL     1      42.753  49.808  38.637  0.00  0.00    +0.000 HD
BRANCH   4   6
ATOM      6  O   UNL     1      40.887  50.801  37.894  0.00  0.00    +0.000 OA
BRANCH   6   7
ATOM      7  C   UNL     1      40.537  49.941  36.770  0.00  0.00    +0.000 C 
ATOM      8  C   UNL     1      40.710  48.462  37.128  0.00  0.00    +0.000 C 
ATOM      9  C   UNL     1      39.044  50.212  36.501  0.00  0.00    +0.000 C 
ATOM     10  C   UNL     1      41.321  50.300  35.501  0.00  0.00    +0.000 C 
ENDBRANCH   6   7
ENDBRANCH   4   6
ENDBRANCH   1   3
BRANCH   1  11
ATOM     11  C   UNL     1      44.532  50.908  40.313  0.00  0.00    +0.000 C 
BRANCH  11  21
ATOM     12  O   UNL     1      42.862  49.254  40.849  0.00  0.00    +0.000 OA
ATOM     13  N   UNL     1      45.047  48.635  41.192  0.00  0.00    +0.000 N 
ATOM     14  N   UNL     1      46.566  47.451  43.185  0.00  0.00    +0.000 N 
ATOM     15  N   UNL     1      48.386  48.578  42.759  0.00  0.00    +0.000 NA
ATOM     16  N   UNL     1      48.567  47.876  43.929  0.00  0.00    +0.000 NA
ATOM     17  C   UNL     1      44.691  47.271  41.609  0.00  0.00    +0.000 C 
ATOM     18  C   UNL     1      45.207  46.978  43.024  0.00  0.00    +0.000 C 
ATOM     19  C   UNL     1      46.495  48.887  41.121  0.00  0.00    +0.000 C 
ATOM     20  C   UNL     1      47.170  48.334  42.328  0.00  0.00    +0.000 A 
ATOM     21  C   UNL     1      44.056  49.542  40.807  0.00  0.00    +0.000 C 
ATOM     22  C   UNL     1      47.458  47.216  44.195  0.00  0.00    +0.000 A 
BRANCH  22  23
ATOM     23  C   UNL     1      47.201  46.393  45.408  0.00  0.00    +0.000 C 
ATOM     24  C   UNL     1      46.595  47.209  46.537  0.00  0.00    +0.000 C 
ENDBRANCH  22  23
ENDBRANCH  11  21
ENDBRANCH   1  11
BRANCH   1  25
ATOM     25  C   UNL     1      45.481  50.550  37.973  0.00  0.00    +0.000 C 
BRANCH  25  28
ATOM     26  F   UNL     1      48.918  52.081  34.784  0.00  0.00    +0.000 F 
ATOM     27  F   UNL     1      46.981  52.766  32.975  0.00  0.00    +0.000 F 
ATOM     28  C   UNL     1      45.928  51.201  36.675  0.00  0.00    +0.000 A 
ATOM     29  C   UNL     1      47.276  51.385  36.338  0.00  0.00    +0.000 A 
ATOM     30  C   UNL     1      44.948  51.542  35.720  0.00  0.00    +0.000 A 
ATOM     31  C   UNL     1      47.623  51.917  35.093  0.00  0.00    +0.000 A 
ATOM     32  C   UNL     1      45.302  52.074  34.475  0.00  0.00    +0.000 A 
ATOM     33  C   UNL     1      46.644  52.264  34.172  0.00  0.00    +0.000 A 
ENDBRANCH  25  28
ENDBRANCH   1  25
TORSDOF 8
ENDMDL
