MODEL 1
REMARK VINA RESULT:      -8.3      0.000      0.000
REMARK  Name = 9966883
REMARK  5 active torsions:
REMARK  status: ('A' for Active; 'I' for Inactive)
REMARK    1  A    between atoms: N_6  and  C_12
REMARK    2  A    between atoms: C_12  and  C_13
REMARK    3  A    between atoms: C_12  and  C_16
REMARK    4  A    between atoms: C_13  and  C_15
REMARK    5  A    between atoms: C_16  and  C_18
REMARK                            x       y       z     vdW  Elec       q    Type
REMARK                         _______ _______ _______ _____ _____    ______ ____
ROOT
ATOM      1  C   UNL     1      46.296  74.666  49.542  0.00  0.00    +0.000 C 
ENDROOT
BRANCH   1   2
ATOM      2  N   UNL     1      44.836  74.433  49.498  0.00  0.00    +0.000 NA
ATOM      3  H   UNL     1      44.580  73.681  50.138  0.00  0.00    +0.000 HD
ATOM      4  H   UNL     1      44.347  75.265  49.833  0.00  0.00    +0.000 HD
ENDBRANCH   1   2
BRANCH   1   5
ATOM      5  C   UNL     1      46.963  73.329  49.162  0.00  0.00    +0.000 C 
BRANCH   5  15
ATOM      6  O   UNL     1      45.773  72.121  50.876  0.00  0.00    +0.000 OA
ATOM      7  N   UNL     1      47.705  71.155  50.101  0.00  0.00    +0.000 N 
ATOM      8  N   UNL     1      49.994  69.865  50.964  0.00  0.00    +0.000 N 
ATOM      9  N   UNL     1      51.234  70.415  49.257  0.00  0.00    +0.000 NA
ATOM     10  N   UNL     1      52.024  69.778  50.194  0.00  0.00    +0.000 NA
ATOM     11  C   UNL     1      47.552  69.977  50.970  0.00  0.00    +0.000 C 
ATOM     12  C   UNL     1      48.801  71.073  49.120  0.00  0.00    +0.000 C 
ATOM     13  C   UNL     1      48.819  69.748  51.796  0.00  0.00    +0.000 C 
ATOM     14  C   UNL     1      50.009  70.475  49.740  0.00  0.00    +0.000 A 
ATOM     15  C   UNL     1      46.739  72.161  50.115  0.00  0.00    +0.000 C 
ATOM     16  C   UNL     1      51.263  69.465  51.216  0.00  0.00    +0.000 A 
ENDBRANCH   5  15
ENDBRANCH   1   5
BRANCH   1  17
ATOM     17  C   UNL     1      46.676  75.830  48.591  0.00  0.00    +0.000 C 
BRANCH  17  20
ATOM     18  F   UNL     1      50.357  76.867  51.677  0.00  0.00    +0.000 F 
ATOM     19  F   UNL     1      50.966  79.134  50.266  0.00  0.00    +0.000 F 
ATOM     20  C   UNL     1      47.814  76.719  49.071  0.00  0.00    +0.000 A 
ATOM     21  C   UNL     1      48.579  76.383  50.199  0.00  0.00    +0.000 A 
ATOM     22  C   UNL     1      48.136  77.892  48.362  0.00  0.00    +0.000 A 
ATOM     23  C   UNL     1      49.637  77.205  50.597  0.00  0.00    +0.000 A 
ATOM     24  C   UNL     1      49.198  78.706  48.767  0.00  0.00    +0.000 A 
ATOM     25  C   UNL     1      49.946  78.355  49.885  0.00  0.00    +0.000 A 
ENDBRANCH  17  20
ENDBRANCH   1  17
TORSDOF 5
ENDMDL
MODEL 2
REMARK VINA RESULT:      -7.9     26.616     28.581
REMARK  Name = 9966883
REMARK  5 active torsions:
REMARK  status: ('A' for Active; 'I' for Inactive)
REMARK    1  A    between atoms: N_6  and  C_12
REMARK    2  A    between atoms: C_12  and  C_13
REMARK    3  A    between atoms: C_12  and  C_16
REMARK    4  A    between atoms: C_13  and  C_15
REMARK    5  A    between atoms: C_16  and  C_18
REMARK                            x       y       z     vdW  Elec       q    Type
REMARK                         _______ _______ _______ _____ _____    ______ ____
ROOT
ATOM      1  C   UNL     1      41.419  51.677  35.821  0.00  0.00    +0.000 C 
ENDROOT
BRANCH   1   2
ATOM      2  N   UNL     1      40.656  52.663  35.024  0.00  0.00    +0.000 NA
ATOM      3  H   UNL     1      39.730  52.297  34.806  0.00  0.00    +0.000 HD
ATOM      4  H   UNL     1      40.502  53.505  35.581  0.00  0.00    +0.000 HD
ENDBRANCH   1   2
BRANCH   1   5
ATOM      5  C   UNL     1      40.377  50.782  36.521  0.00  0.00    +0.000 C 
BRANCH   5  15
ATOM      6  O   UNL     1      39.238  52.381  37.919  0.00  0.00    +0.000 OA
ATOM      7  N   UNL     1      37.910  51.027  36.627  0.00  0.00    +0.000 N 
ATOM      8  N   UNL     1      35.608  49.498  36.726  0.00  0.00    +0.000 N 
ATOM      9  N   UNL     1      36.164  48.128  35.123  0.00  0.00    +0.000 NA
ATOM     10  N   UNL     1      34.990  47.685  35.699  0.00  0.00    +0.000 NA
ATOM     11  C   UNL     1      36.672  51.667  37.099  0.00  0.00    +0.000 C 
ATOM     12  C   UNL     1      37.738  50.059  35.530  0.00  0.00    +0.000 C 
ATOM     13  C   UNL     1      35.692  50.619  37.633  0.00  0.00    +0.000 C 
ATOM     14  C   UNL     1      36.538  49.218  35.764  0.00  0.00    +0.000 A 
ATOM     15  C   UNL     1      39.147  51.482  37.085  0.00  0.00    +0.000 C 
ATOM     16  C   UNL     1      34.678  48.515  36.667  0.00  0.00    +0.000 A 
ENDBRANCH   5  15
ENDBRANCH   1   5
BRANCH   1  17
ATOM     17  C   UNL     1      42.386  50.887  34.902  0.00  0.00    +0.000 C 
BRANCH  17  20
ATOM     18  F   UNL     1      46.465  52.728  32.873  0.00  0.00    +0.000 F 
ATOM     19  F   UNL     1      47.796  52.538  35.259  0.00  0.00    +0.000 F 
ATOM     20  C   UNL     1      43.846  51.310  34.973  0.00  0.00    +0.000 A 
ATOM     21  C   UNL     1      44.512  51.828  33.851  0.00  0.00    +0.000 A 
ATOM     22  C   UNL     1      44.548  51.211  36.189  0.00  0.00    +0.000 A 
ATOM     23  C   UNL     1      45.845  52.236  33.955  0.00  0.00    +0.000 A 
ATOM     24  C   UNL     1      45.880  51.625  36.283  0.00  0.00    +0.000 A 
ATOM     25  C   UNL     1      46.522  52.138  35.163  0.00  0.00    +0.000 A 
ENDBRANCH  17  20
ENDBRANCH   1  17
TORSDOF 5
ENDMDL
MODEL 3
REMARK VINA RESULT:      -7.5     22.923     24.745
REMARK  Name = 9966883
REMARK  5 active torsions:
REMARK  status: ('A' for Active; 'I' for Inactive)
REMARK    1  A    between atoms: N_6  and  C_12
REMARK    2  A    between atoms: C_12  and  C_13
REMARK    3  A    between atoms: C_12  and  C_16
REMARK    4  A    between atoms: C_13  and  C_15
REMARK    5  A    between atoms: C_16  and  C_18
REMARK                            x       y       z     vdW  Elec       q    Type
REMARK                         _______ _______ _______ _____ _____    ______ ____
ROOT
ATOM      1  C   UNL     1      28.521  63.853  36.314  0.00  0.00    +0.000 C 
ENDROOT
BRANCH   1   2
ATOM      2  N   UNL     1      29.168  62.599  35.869  0.00  0.00    +0.000 NA
ATOM      3  H   UNL     1      28.760  62.287  34.988  0.00  0.00    +0.000 HD
ATOM      4  H   UNL     1      30.155  62.774  35.675  0.00  0.00    +0.000 HD
ENDBRANCH   1   2
BRANCH   1   5
ATOM      5  C   UNL     1      28.649  63.888  37.850  0.00  0.00    +0.000 C 
BRANCH   5  15
ATOM      6  O   UNL     1      31.058  63.813  37.821  0.00  0.00    +0.000 OA
ATOM      7  N   UNL     1      30.091  64.809  39.648  0.00  0.00    +0.000 N 
ATOM      8  N   UNL     1      30.260  64.933  42.405  0.00  0.00    +0.000 N 
ATOM      9  N   UNL     1      28.179  65.488  42.745  0.00  0.00    +0.000 NA
ATOM     10  N   UNL     1      28.782  65.256  43.965  0.00  0.00    +0.000 NA
ATOM     11  C   UNL     1      31.393  65.139  40.249  0.00  0.00    +0.000 C 
ATOM     12  C   UNL     1      28.919  65.379  40.335  0.00  0.00    +0.000 C 
ATOM     13  C   UNL     1      31.472  64.617  41.686  0.00  0.00    +0.000 C 
ATOM     14  C   UNL     1      29.079  65.274  41.807  0.00  0.00    +0.000 A 
ATOM     15  C   UNL     1      30.039  64.164  38.412  0.00  0.00    +0.000 C 
ATOM     16  C   UNL     1      30.029  64.913  43.739  0.00  0.00    +0.000 A 
ENDBRANCH   5  15
ENDBRANCH   1   5
BRANCH   1  17
ATOM     17  C   UNL     1      29.185  65.069  35.617  0.00  0.00    +0.000 C 
BRANCH  17  20
ATOM     18  F   UNL     1      25.736  68.242  34.140  0.00  0.00    +0.000 F 
ATOM     19  F   UNL     1      26.348  69.941  36.198  0.00  0.00    +0.000 F 
ATOM     20  C   UNL     1      28.431  66.385  35.742  0.00  0.00    +0.000 A 
ATOM     21  C   UNL     1      27.406  66.728  34.847  0.00  0.00    +0.000 A 
ATOM     22  C   UNL     1      28.738  67.274  36.789  0.00  0.00    +0.000 A 
ATOM     23  C   UNL     1      26.712  67.931  35.005  0.00  0.00    +0.000 A 
ATOM     24  C   UNL     1      28.036  68.472  36.941  0.00  0.00    +0.000 A 
ATOM     25  C   UNL     1      27.023  68.794  36.046  0.00  0.00    +0.000 A 
ENDBRANCH  17  20
ENDBRANCH   1  17
TORSDOF 5
ENDMDL
MODEL 4
REMARK VINA RESULT:      -6.8     25.157     27.479
REMARK  Name = 9966883
REMARK  5 active torsions:
REMARK  status: ('A' for Active; 'I' for Inactive)
REMARK    1  A    between atoms: N_6  and  C_12
REMARK    2  A    between atoms: C_12  and  C_13
REMARK    3  A    between atoms: C_12  and  C_16
REMARK    4  A    between atoms: C_13  and  C_15
REMARK    5  A    between atoms: C_16  and  C_18
REMARK                            x       y       z     vdW  Elec       q    Type
REMARK                         _______ _______ _______ _____ _____    ______ ____
ROOT
ATOM      1  C   UNL     1      49.258  52.599  37.181  0.00  0.00    +0.000 C 
ENDROOT
BRANCH   1   2
ATOM      2  N   UNL     1      49.094  52.877  38.625  0.00  0.00    +0.000 NA
ATOM      3  H   UNL     1      48.177  53.285  38.803  0.00  0.00    +0.000 HD
ATOM      4  H   UNL     1      49.117  51.999  39.147  0.00  0.00    +0.000 HD
ENDBRANCH   1   2
BRANCH   1   5
ATOM      5  C   UNL     1      50.772  52.438  36.937  0.00  0.00    +0.000 C 
BRANCH   5  15
ATOM      6  O   UNL     1      50.744  53.145  34.632  0.00  0.00    +0.000 OA
ATOM      7  N   UNL     1      52.199  51.451  35.163  0.00  0.00    +0.000 N 
ATOM      8  N   UNL     1      53.110  49.001  34.263  0.00  0.00    +0.000 N 
ATOM      9  N   UNL     1      53.694  48.232  36.218  0.00  0.00    +0.000 NA
ATOM     10  N   UNL     1      53.834  47.224  35.285  0.00  0.00    +0.000 NA
ATOM     11  C   UNL     1      52.716  51.366  33.788  0.00  0.00    +0.000 C 
ATOM     12  C   UNL     1      52.916  50.632  36.156  0.00  0.00    +0.000 C 
ATOM     13  C   UNL     1      52.629  49.929  33.267  0.00  0.00    +0.000 C 
ATOM     14  C   UNL     1      53.241  49.299  35.591  0.00  0.00    +0.000 A 
ATOM     15  C   UNL     1      51.227  52.400  35.483  0.00  0.00    +0.000 C 
ATOM     16  C   UNL     1      53.468  47.703  34.118  0.00  0.00    +0.000 A 
ENDBRANCH   5  15
ENDBRANCH   1   5
BRANCH   1  17
ATOM     17  C   UNL     1      48.438  51.344  36.787  0.00  0.00    +0.000 C 
BRANCH  17  20
ATOM     18  F   UNL     1      46.252  52.843  32.649  0.00  0.00    +0.000 F 
ATOM     19  F   UNL     1      43.786  52.228  33.671  0.00  0.00    +0.000 F 
ATOM     20  C   UNL     1      47.198  51.612  35.946  0.00  0.00    +0.000 A 
ATOM     21  C   UNL     1      47.294  52.135  34.647  0.00  0.00    +0.000 A 
ATOM     22  C   UNL     1      45.922  51.310  36.458  0.00  0.00    +0.000 A 
ATOM     23  C   UNL     1      46.140  52.343  33.888  0.00  0.00    +0.000 A 
ATOM     24  C   UNL     1      44.774  51.519  35.691  0.00  0.00    +0.000 A 
ATOM     25  C   UNL     1      44.889  52.034  34.405  0.00  0.00    +0.000 A 
ENDBRANCH  17  20
ENDBRANCH   1  17
TORSDOF 5
ENDMDL
MODEL 5
REMARK VINA RESULT:      -6.6     12.010     13.278
REMARK  Name = 9966883
REMARK  5 active torsions:
REMARK  status: ('A' for Active; 'I' for Inactive)
REMARK    1  A    between atoms: N_6  and  C_12
REMARK    2  A    between atoms: C_12  and  C_13
REMARK    3  A    between atoms: C_12  and  C_16
REMARK    4  A    between atoms: C_13  and  C_15
REMARK    5  A    between atoms: C_16  and  C_18
REMARK                            x       y       z     vdW  Elec       q    Type
REMARK                         _______ _______ _______ _____ _____    ______ ____
ROOT
ATOM      1  C   UNL     1      52.228  70.245  38.288  0.00  0.00    +0.000 C 
ENDROOT
BRANCH   1   2
ATOM      2  N   UNL     1      52.725  69.252  37.310  0.00  0.00    +0.000 NA
ATOM      3  H   UNL     1      52.640  69.619  36.362  0.00  0.00    +0.000 HD
ATOM      4  H   UNL     1      53.723  69.093  37.461  0.00  0.00    +0.000 HD
ENDBRANCH   1   2
BRANCH   1   5
ATOM      5  C   UNL     1      53.433  71.134  38.656  0.00  0.00    +0.000 C 
BRANCH   5  15
ATOM      6  O   UNL     1      54.140  71.463  36.375  0.00  0.00    +0.000 OA
ATOM      7  N   UNL     1      55.794  71.459  37.966  0.00  0.00    +0.000 N 
ATOM      8  N   UNL     1      58.328  70.474  38.472  0.00  0.00    +0.000 N 
ATOM      9  N   UNL     1      58.165  70.504  40.646  0.00  0.00    +0.000 NA
ATOM     10  N   UNL     1      59.353  69.894  40.298  0.00  0.00    +0.000 NA
ATOM     11  C   UNL     1      56.850  71.719  36.974  0.00  0.00    +0.000 C 
ATOM     12  C   UNL     1      56.229  71.506  39.373  0.00  0.00    +0.000 C 
ATOM     13  C   UNL     1      57.965  70.677  37.089  0.00  0.00    +0.000 C 
ATOM     14  C   UNL     1      57.545  70.837  39.532  0.00  0.00    +0.000 A 
ATOM     15  C   UNL     1      54.463  71.375  37.559  0.00  0.00    +0.000 C 
ATOM     16  C   UNL     1      59.428  69.876  38.987  0.00  0.00    +0.000 A 
ENDBRANCH   5  15
ENDBRANCH   1   5
BRANCH   1  17
ATOM     17  C   UNL     1      51.044  71.041  37.681  0.00  0.00    +0.000 C 
BRANCH  17  20
ATOM     18  F   UNL     1      49.058  71.461  42.156  0.00  0.00    +0.000 F 
ATOM     19  F   UNL     1      47.754  73.752  41.417  0.00  0.00    +0.000 F 
ATOM     20  C   UNL     1      50.144  71.741  38.689  0.00  0.00    +0.000 A 
ATOM     21  C   UNL     1      49.997  71.257  39.999  0.00  0.00    +0.000 A 
ATOM     22  C   UNL     1      49.460  72.915  38.324  0.00  0.00    +0.000 A 
ATOM     23  C   UNL     1      49.186  71.938  40.910  0.00  0.00    +0.000 A 
ATOM     24  C   UNL     1      48.654  73.591  39.244  0.00  0.00    +0.000 A 
ATOM     25  C   UNL     1      48.523  73.098  40.536  0.00  0.00    +0.000 A 
ENDBRANCH  17  20
ENDBRANCH   1  17
TORSDOF 5
ENDMDL
MODEL 6
REMARK VINA RESULT:      -6.6     25.893     27.505
REMARK  Name = 9966883
REMARK  5 active torsions:
REMARK  status: ('A' for Active; 'I' for Inactive)
REMARK    1  A    between atoms: N_6  and  C_12
REMARK    2  A    between atoms: C_12  and  C_13
REMARK    3  A    between atoms: C_12  and  C_16
REMARK    4  A    between atoms: C_13  and  C_15
REMARK    5  A    between atoms: C_16  and  C_18
REMARK                            x       y       z     vdW  Elec       q    Type
REMARK                         _______ _______ _______ _____ _____    ______ ____
ROOT
ATOM      1  C   UNL     1      44.509  51.992  35.105  0.00  0.00    +0.000 C 
ENDROOT
BRANCH   1   2
ATOM      2  N   UNL     1      45.096  52.979  34.171  0.00  0.00    +0.000 NA
ATOM      3  H   UNL     1      44.537  53.034  33.321  0.00  0.00    +0.000 HD
ATOM      4  H   UNL     1      45.062  53.909  34.591  0.00  0.00    +0.000 HD
ENDBRANCH   1   2
BRANCH   1   5
ATOM      5  C   UNL     1      45.646  51.561  36.054  0.00  0.00    +0.000 C 
BRANCH   5  15
ATOM      6  O   UNL     1      46.609  53.734  36.454  0.00  0.00    +0.000 OA
ATOM      7  N   UNL     1      48.085  52.017  36.073  0.00  0.00    +0.000 N 
ATOM      8  N   UNL     1      50.391  51.397  34.680  0.00  0.00    +0.000 N 
ATOM      9  N   UNL     1      50.024  49.251  34.559  0.00  0.00    +0.000 NA
ATOM     10  N   UNL     1      51.142  49.554  33.807  0.00  0.00    +0.000 NA
ATOM     11  C   UNL     1      49.257  52.889  36.249  0.00  0.00    +0.000 C 
ATOM     12  C   UNL     1      48.384  50.581  35.940  0.00  0.00    +0.000 C 
ATOM     13  C   UNL     1      50.196  52.780  35.045  0.00  0.00    +0.000 C 
ATOM     14  C   UNL     1      49.569  50.377  35.070  0.00  0.00    +0.000 A 
ATOM     15  C   UNL     1      46.800  52.541  36.224  0.00  0.00    +0.000 C 
ATOM     16  C   UNL     1      51.339  50.849  33.883  0.00  0.00    +0.000 A 
ENDBRANCH   5  15
ENDBRANCH   1   5
BRANCH   1  17
ATOM     17  C   UNL     1      43.299  52.618  35.845  0.00  0.00    +0.000 C 
BRANCH  17  20
ATOM     18  F   UNL     1      41.130  48.566  37.583  0.00  0.00    +0.000 F 
ATOM     19  F   UNL     1      38.735  49.321  36.491  0.00  0.00    +0.000 F 
ATOM     20  C   UNL     1      42.091  51.708  36.006  0.00  0.00    +0.000 A 
ATOM     21  C   UNL     1      42.170  50.509  36.732  0.00  0.00    +0.000 A 
ATOM     22  C   UNL     1      40.854  52.076  35.444  0.00  0.00    +0.000 A 
ATOM     23  C   UNL     1      41.035  49.708  36.887  0.00  0.00    +0.000 A 
ATOM     24  C   UNL     1      39.724  51.269  35.607  0.00  0.00    +0.000 A 
ATOM     25  C   UNL     1      39.821  50.087  36.331  0.00  0.00    +0.000 A 
ENDBRANCH  17  20
ENDBRANCH   1  17
TORSDOF 5
ENDMDL
MODEL 7
REMARK VINA RESULT:      -6.4     24.183     27.181
REMARK  Name = 9966883
REMARK  5 active torsions:
REMARK  status: ('A' for Active; 'I' for Inactive)
REMARK    1  A    between atoms: N_6  and  C_12
REMARK    2  A    between atoms: C_12  and  C_13
REMARK    3  A    between atoms: C_12  and  C_16
REMARK    4  A    between atoms: C_13  and  C_15
REMARK    5  A    between atoms: C_16  and  C_18
REMARK                            x       y       z     vdW  Elec       q    Type
REMARK                         _______ _______ _______ _____ _____    ______ ____
ROOT
ATOM      1  C   UNL     1      35.518  47.073  46.472  0.00  0.00    +0.000 C 
ENDROOT
BRANCH   1   2
ATOM      2  N   UNL     1      34.897  46.478  45.268  0.00  0.00    +0.000 NA
ATOM      3  H   UNL     1      34.309  47.166  44.798  0.00  0.00    +0.000 HD
ATOM      4  H   UNL     1      35.625  46.226  44.597  0.00  0.00    +0.000 HD
ENDBRANCH   1   2
BRANCH   1   5
ATOM      5  C   UNL     1      36.805  47.775  45.996  0.00  0.00    +0.000 C 
BRANCH   5  15
ATOM      6  O   UNL     1      35.864  49.133  44.240  0.00  0.00    +0.000 OA
ATOM      7  N   UNL     1      37.392  50.156  45.613  0.00  0.00    +0.000 N 
ATOM      8  N   UNL     1      39.586  51.839  45.558  0.00  0.00    +0.000 N 
ATOM      9  N   UNL     1      40.474  51.130  47.419  0.00  0.00    +0.000 NA
ATOM     10  N   UNL     1      41.347  52.016  46.818  0.00  0.00    +0.000 NA
ATOM     11  C   UNL     1      37.258  51.448  44.921  0.00  0.00    +0.000 C 
ATOM     12  C   UNL     1      38.209  50.181  46.839  0.00  0.00    +0.000 C 
ATOM     13  C   UNL     1      38.629  51.971  44.484  0.00  0.00    +0.000 C 
ATOM     14  C   UNL     1      39.417  51.019  46.639  0.00  0.00    +0.000 A 
ATOM     15  C   UNL     1      36.624  49.065  45.204  0.00  0.00    +0.000 C 
ATOM     16  C   UNL     1      40.800  52.421  45.696  0.00  0.00    +0.000 A 
ENDBRANCH   5  15
ENDBRANCH   1   5
BRANCH   1  17
ATOM     17  C   UNL     1      34.517  48.034  47.164  0.00  0.00    +0.000 C 
BRANCH  17  20
ATOM     18  F   UNL     1      36.937  48.207  51.437  0.00  0.00    +0.000 F 
ATOM     19  F   UNL     1      36.617  50.924  51.565  0.00  0.00    +0.000 F 
ATOM     20  C   UNL     1      35.065  48.790  48.366  0.00  0.00    +0.000 A 
ATOM     21  C   UNL     1      35.760  48.130  49.391  0.00  0.00    +0.000 A 
ATOM     22  C   UNL     1      34.902  50.186  48.452  0.00  0.00    +0.000 A 
ATOM     23  C   UNL     1      36.276  48.855  50.468  0.00  0.00    +0.000 A 
ATOM     24  C   UNL     1      35.425  50.903  49.532  0.00  0.00    +0.000 A 
ATOM     25  C   UNL     1      36.112  50.232  50.535  0.00  0.00    +0.000 A 
ENDBRANCH  17  20
ENDBRANCH   1  17
TORSDOF 5
ENDMDL
MODEL 8
REMARK VINA RESULT:      -6.3     26.543     27.555
REMARK  Name = 9966883
REMARK  5 active torsions:
REMARK  status: ('A' for Active; 'I' for Inactive)
REMARK    1  A    between atoms: N_6  and  C_12
REMARK    2  A    between atoms: C_12  and  C_13
REMARK    3  A    between atoms: C_12  and  C_16
REMARK    4  A    between atoms: C_13  and  C_15
REMARK    5  A    between atoms: C_16  and  C_18
REMARK                            x       y       z     vdW  Elec       q    Type
REMARK                         _______ _______ _______ _____ _____    ______ ____
ROOT
ATOM      1  C   UNL     1      44.213  52.128  34.946  0.00  0.00    +0.000 C 
ENDROOT
BRANCH   1   2
ATOM      2  N   UNL     1      44.235  53.083  33.817  0.00  0.00    +0.000 NA
ATOM      3  H   UNL     1      43.410  53.681  33.845  0.00  0.00    +0.000 HD
ATOM      4  H   UNL     1      45.038  53.708  33.914  0.00  0.00    +0.000 HD
ENDBRANCH   1   2
BRANCH   1   5
ATOM      5  C   UNL     1      45.527  52.340  35.723  0.00  0.00    +0.000 C 
BRANCH   5  15
ATOM      6  O   UNL     1      46.927  52.174  33.767  0.00  0.00    +0.000 OA
ATOM      7  N   UNL     1      47.858  51.488  35.749  0.00  0.00    +0.000 N 
ATOM      8  N   UNL     1      49.386  49.464  36.853  0.00  0.00    +0.000 N 
ATOM      9  N   UNL     1      48.639  49.687  38.889  0.00  0.00    +0.000 NA
ATOM     10  N   UNL     1      49.456  48.575  38.834  0.00  0.00    +0.000 NA
ATOM     11  C   UNL     1      49.148  51.170  35.117  0.00  0.00    +0.000 C 
ATOM     12  C   UNL     1      47.841  51.404  37.220  0.00  0.00    +0.000 C 
ATOM     13  C   UNL     1      49.571  49.736  35.446  0.00  0.00    +0.000 C 
ATOM     14  C   UNL     1      48.592  50.209  37.680  0.00  0.00    +0.000 A 
ATOM     15  C   UNL     1      46.817  52.012  34.981  0.00  0.00    +0.000 C 
ATOM     16  C   UNL     1      49.886  48.452  37.600  0.00  0.00    +0.000 A 
ENDBRANCH   5  15
ENDBRANCH   1   5
BRANCH   1  17
ATOM     17  C   UNL     1      42.947  52.359  35.811  0.00  0.00    +0.000 C 
BRANCH  17  20
ATOM     18  F   UNL     1      40.014  48.531  36.756  0.00  0.00    +0.000 F 
ATOM     19  F   UNL     1      41.461  47.912  38.996  0.00  0.00    +0.000 F 
ATOM     20  C   UNL     1      42.518  51.178  36.669  0.00  0.00    +0.000 A 
ATOM     21  C   UNL     1      41.419  50.379  36.316  0.00  0.00    +0.000 A 
ATOM     22  C   UNL     1      43.245  50.850  37.828  0.00  0.00    +0.000 A 
ATOM     23  C   UNL     1      41.067  49.283  37.108  0.00  0.00    +0.000 A 
ATOM     24  C   UNL     1      42.887  49.750  38.612  0.00  0.00    +0.000 A 
ATOM     25  C   UNL     1      41.798  48.969  38.246  0.00  0.00    +0.000 A 
ENDBRANCH  17  20
ENDBRANCH   1  17
TORSDOF 5
ENDMDL
MODEL 9
REMARK VINA RESULT:      -6.3     16.566     18.039
REMARK  Name = 9966883
REMARK  5 active torsions:
REMARK  status: ('A' for Active; 'I' for Inactive)
REMARK    1  A    between atoms: N_6  and  C_12
REMARK    2  A    between atoms: C_12  and  C_13
REMARK    3  A    between atoms: C_12  and  C_16
REMARK    4  A    between atoms: C_13  and  C_15
REMARK    5  A    between atoms: C_16  and  C_18
REMARK                            x       y       z     vdW  Elec       q    Type
REMARK                         _______ _______ _______ _____ _____    ______ ____
ROOT
ATOM      1  C   UNL     1      44.724  57.933  54.640  0.00  0.00    +0.000 C 
ENDROOT
BRANCH   1   2
ATOM      2  N   UNL     1      44.519  58.602  53.336  0.00  0.00    +0.000 NA
ATOM      3  H   UNL     1      44.651  57.936  52.575  0.00  0.00    +0.000 HD
ATOM      4  H   UNL     1      43.552  58.921  53.265  0.00  0.00    +0.000 HD
ENDBRANCH   1   2
BRANCH   1   5
ATOM      5  C   UNL     1      46.224  57.586  54.721  0.00  0.00    +0.000 C 
BRANCH   5  15
ATOM      6  O   UNL     1      46.282  55.244  54.151  0.00  0.00    +0.000 OA
ATOM      7  N   UNL     1      47.622  56.630  52.907  0.00  0.00    +0.000 N 
ATOM      8  N   UNL     1      50.166  56.818  51.838  0.00  0.00    +0.000 N 
ATOM      9  N   UNL     1      50.239  58.997  51.783  0.00  0.00    +0.000 NA
ATOM     10  N   UNL     1      51.478  58.501  51.428  0.00  0.00    +0.000 NA
ATOM     11  C   UNL     1      48.102  55.527  52.060  0.00  0.00    +0.000 C 
ATOM     12  C   UNL     1      48.038  57.978  52.479  0.00  0.00    +0.000 C 
ATOM     13  C   UNL     1      49.632  55.491  52.036  0.00  0.00    +0.000 C 
ATOM     14  C   UNL     1      49.457  57.969  52.044  0.00  0.00    +0.000 A 
ATOM     15  C   UNL     1      46.688  56.380  53.912  0.00  0.00    +0.000 C 
ATOM     16  C   UNL     1      51.417  57.191  51.478  0.00  0.00    +0.000 A 
ENDBRANCH   5  15
ENDBRANCH   1   5
BRANCH   1  17
ATOM     17  C   UNL     1      44.248  58.857  55.790  0.00  0.00    +0.000 C 
BRANCH  17  20
ATOM     18  F   UNL     1      40.422  59.549  58.795  0.00  0.00    +0.000 F 
ATOM     19  F   UNL     1      39.785  56.888  58.677  0.00  0.00    +0.000 F 
ATOM     20  C   UNL     1      43.062  58.341  56.593  0.00  0.00    +0.000 A 
ATOM     21  C   UNL     1      42.268  59.206  57.363  0.00  0.00    +0.000 A 
ATOM     22  C   UNL     1      42.725  56.975  56.550  0.00  0.00    +0.000 A 
ATOM     23  C   UNL     1      41.168  58.707  58.066  0.00  0.00    +0.000 A 
ATOM     24  C   UNL     1      41.621  56.487  57.254  0.00  0.00    +0.000 A 
ATOM     25  C   UNL     1      40.845  57.359  58.009  0.00  0.00    +0.000 A 
ENDBRANCH  17  20
ENDBRANCH   1  17
TORSDOF 5
ENDMDL
