MODEL 1
REMARK VINA RESULT:      -8.3      0.000      0.000
REMARK  Name = 10478099
REMARK  8 active torsions:
REMARK  status: ('A' for Active; 'I' for Inactive)
REMARK    1  A    between atoms: N_12  and  C_22
REMARK    2  A    between atoms: C_13  and  C_17
REMARK    3  A    between atoms: C_13  and  C_18
REMARK    4  A    between atoms: C_19  and  C_23
REMARK    5  A    between atoms: C_20  and  C_21
REMARK    6  A    between atoms: C_21  and  C_22
REMARK    7  A    between atoms: C_22  and  C_24
REMARK    8  A    between atoms: C_24  and  C_25
REMARK                            x       y       z     vdW  Elec       q    Type
REMARK                         _______ _______ _______ _____ _____    ______ ____
ROOT
ATOM      1  O   UNL     1      54.872  71.658  36.450  0.00  0.00    +0.000 OA
ATOM      2  N   UNL     1      56.844  70.777  40.783  0.00  0.00    +0.000 N 
ATOM      3  N   UNL     1      55.608  70.482  38.278  0.00  0.00    +0.000 N 
ATOM      4  N   UNL     1      58.515  71.968  39.982  0.00  0.00    +0.000 NA
ATOM      5  N   UNL     1      58.624  71.923  41.339  0.00  0.00    +0.000 NA
ATOM      6  C   UNL     1      55.604  69.986  40.721  0.00  0.00    +0.000 C 
ATOM      7  C   UNL     1      55.466  69.426  39.273  0.00  0.00    +0.000 C 
ATOM      8  C   UNL     1      56.908  71.142  38.252  0.00  0.00    +0.000 C 
ATOM      9  C   UNL     1      57.431  71.311  39.643  0.00  0.00    +0.000 A 
ATOM     10  C   UNL     1      54.403  70.901  41.036  0.00  0.00    +0.000 C 
ATOM     11  C   UNL     1      55.584  68.744  41.629  0.00  0.00    +0.000 C 
ATOM     12  C   UNL     1      57.603  71.242  41.837  0.00  0.00    +0.000 A 
ATOM     13  C   UNL     1      54.645  70.846  37.345  0.00  0.00    +0.000 C 
ENDROOT
BRANCH  12  17
ATOM     14  F   UNL     1      56.082  71.182  43.673  0.00  0.00    +0.000 F 
ATOM     15  F   UNL     1      58.056  71.978  44.034  0.00  0.00    +0.000 F 
ATOM     16  F   UNL     1      57.785  69.836  43.720  0.00  0.00    +0.000 F 
ATOM     17  C   UNL     1      57.378  71.061  43.296  0.00  0.00    +0.000 C 
ENDBRANCH  12  17
BRANCH  13  18
ATOM     18  C   UNL     1      53.269  70.218  37.523  0.00  0.00    +0.000 C 
BRANCH  18  19
ATOM     19  C   UNL     1      52.086  71.078  37.059  0.00  0.00    +0.000 C 
BRANCH  19  20
ATOM     20  N   UNL     1      52.207  72.474  37.503  0.00  0.00    +0.000 NA
ATOM     21  H   UNL     1      51.571  72.631  38.285  0.00  0.00    +0.000 HD
ATOM     22  H   UNL     1      51.837  73.079  36.757  0.00  0.00    +0.000 HD
ENDBRANCH  19  20
BRANCH  19  23
ATOM     23  C   UNL     1      50.733  70.477  37.529  0.00  0.00    +0.000 C 
BRANCH  23  27
ATOM     24  F   UNL     1      51.204  69.751  40.245  0.00  0.00    +0.000 F 
ATOM     25  F   UNL     1      47.819  73.936  39.408  0.00  0.00    +0.000 F 
ATOM     26  F   UNL     1      48.401  73.116  41.956  0.00  0.00    +0.000 F 
ATOM     27  C   UNL     1      50.083  71.170  38.710  0.00  0.00    +0.000 A 
ATOM     28  C   UNL     1      50.356  70.768  40.024  0.00  0.00    +0.000 A 
ATOM     29  C   UNL     1      49.213  72.257  38.512  0.00  0.00    +0.000 A 
ATOM     30  C   UNL     1      48.648  72.901  39.611  0.00  0.00    +0.000 A 
ATOM     31  C   UNL     1      49.797  71.415  41.123  0.00  0.00    +0.000 A 
ATOM     32  C   UNL     1      48.940  72.485  40.903  0.00  0.00    +0.000 A 
ENDBRANCH  23  27
ENDBRANCH  19  23
ENDBRANCH  18  19
ENDBRANCH  13  18
TORSDOF 6
ENDMDL
MODEL 2
REMARK VINA RESULT:      -7.9     20.321     21.669
REMARK  Name = 10478099
REMARK  8 active torsions:
REMARK  status: ('A' for Active; 'I' for Inactive)
REMARK    1  A    between atoms: N_12  and  C_22
REMARK    2  A    between atoms: C_13  and  C_17
REMARK    3  A    between atoms: C_13  and  C_18
REMARK    4  A    between atoms: C_19  and  C_23
REMARK    5  A    between atoms: C_20  and  C_21
REMARK    6  A    between atoms: C_21  and  C_22
REMARK    7  A    between atoms: C_22  and  C_24
REMARK    8  A    between atoms: C_24  and  C_25
REMARK                            x       y       z     vdW  Elec       q    Type
REMARK                         _______ _______ _______ _____ _____    ______ ____
ROOT
ATOM      1  O   UNL     1      46.773  53.829  36.486  0.00  0.00    +0.000 OA
ATOM      2  N   UNL     1      50.945  51.792  35.112  0.00  0.00    +0.000 N 
ATOM      3  N   UNL     1      48.266  52.630  35.221  0.00  0.00    +0.000 N 
ATOM      4  N   UNL     1      51.745  53.819  35.429  0.00  0.00    +0.000 NA
ATOM      5  N   UNL     1      52.783  52.936  35.424  0.00  0.00    +0.000 NA
ATOM      6  C   UNL     1      49.900  50.771  34.921  0.00  0.00    +0.000 C 
ATOM      7  C   UNL     1      48.624  51.489  34.387  0.00  0.00    +0.000 C 
ATOM      8  C   UNL     1      49.252  53.704  35.263  0.00  0.00    +0.000 C 
ATOM      9  C   UNL     1      50.635  53.136  35.276  0.00  0.00    +0.000 A 
ATOM     10  C   UNL     1      49.587  50.106  36.276  0.00  0.00    +0.000 C 
ATOM     11  C   UNL     1      50.225  49.704  33.861  0.00  0.00    +0.000 C 
ATOM     12  C   UNL     1      52.312  51.708  35.272  0.00  0.00    +0.000 A 
ATOM     13  C   UNL     1      47.065  52.787  35.903  0.00  0.00    +0.000 C 
ENDROOT
BRANCH  12  17
ATOM     14  F   UNL     1      52.693  49.490  36.060  0.00  0.00    +0.000 F 
ATOM     15  F   UNL     1      54.415  50.760  35.779  0.00  0.00    +0.000 F 
ATOM     16  F   UNL     1      53.342  49.978  34.047  0.00  0.00    +0.000 F 
ATOM     17  C   UNL     1      53.174  50.496  35.292  0.00  0.00    +0.000 C 
ENDBRANCH  12  17
BRANCH  13  18
ATOM     18  C   UNL     1      46.149  51.571  35.931  0.00  0.00    +0.000 C 
BRANCH  18  19
ATOM     19  C   UNL     1      44.745  51.790  35.349  0.00  0.00    +0.000 C 
BRANCH  19  20
ATOM     20  N   UNL     1      44.734  52.819  34.300  0.00  0.00    +0.000 NA
ATOM     21  H   UNL     1      44.295  53.664  34.667  0.00  0.00    +0.000 HD
ATOM     22  H   UNL     1      44.092  52.509  33.557  0.00  0.00    +0.000 HD
ENDBRANCH  19  20
BRANCH  19  23
ATOM     23  C   UNL     1      43.721  52.141  36.463  0.00  0.00    +0.000 C 
BRANCH  23  27
ATOM     24  F   UNL     1      43.286  49.816  38.053  0.00  0.00    +0.000 F 
ATOM     25  F   UNL     1      39.141  51.401  34.893  0.00  0.00    +0.000 F 
ATOM     26  F   UNL     1      38.890  49.199  36.503  0.00  0.00    +0.000 F 
ATOM     27  C   UNL     1      42.435  51.341  36.448  0.00  0.00    +0.000 A 
ATOM     28  C   UNL     1      42.280  50.207  37.255  0.00  0.00    +0.000 A 
ATOM     29  C   UNL     1      41.352  51.741  35.644  0.00  0.00    +0.000 A 
ATOM     30  C   UNL     1      40.166  51.010  35.666  0.00  0.00    +0.000 A 
ATOM     31  C   UNL     1      41.093  49.479  37.282  0.00  0.00    +0.000 A 
ATOM     32  C   UNL     1      40.039  49.892  36.479  0.00  0.00    +0.000 A 
ENDBRANCH  23  27
ENDBRANCH  19  23
ENDBRANCH  18  19
ENDBRANCH  13  18
TORSDOF 6
ENDMDL
MODEL 3
REMARK VINA RESULT:      -7.8      4.320      6.359
REMARK  Name = 10478099
REMARK  8 active torsions:
REMARK  status: ('A' for Active; 'I' for Inactive)
REMARK    1  A    between atoms: N_12  and  C_22
REMARK    2  A    between atoms: C_13  and  C_17
REMARK    3  A    between atoms: C_13  and  C_18
REMARK    4  A    between atoms: C_19  and  C_23
REMARK    5  A    between atoms: C_20  and  C_21
REMARK    6  A    between atoms: C_21  and  C_22
REMARK    7  A    between atoms: C_22  and  C_24
REMARK    8  A    between atoms: C_24  and  C_25
REMARK                            x       y       z     vdW  Elec       q    Type
REMARK                         _______ _______ _______ _____ _____    ______ ____
ROOT
ATOM      1  O   UNL     1      55.150  68.918  37.657  0.00  0.00    +0.000 OA
ATOM      2  N   UNL     1      56.648  71.543  41.439  0.00  0.00    +0.000 N 
ATOM      3  N   UNL     1      56.301  70.502  38.853  0.00  0.00    +0.000 N 
ATOM      4  N   UNL     1      54.490  71.828  41.771  0.00  0.00    +0.000 NA
ATOM      5  N   UNL     1      55.152  72.127  42.925  0.00  0.00    +0.000 NA
ATOM      6  C   UNL     1      57.857  71.176  40.681  0.00  0.00    +0.000 C 
ATOM      7  C   UNL     1      57.511  71.255  39.164  0.00  0.00    +0.000 C 
ATOM      8  C   UNL     1      55.084  70.988  39.492  0.00  0.00    +0.000 C 
ATOM      9  C   UNL     1      55.378  71.445  40.885  0.00  0.00    +0.000 A 
ATOM     10  C   UNL     1      58.263  69.734  41.043  0.00  0.00    +0.000 C 
ATOM     11  C   UNL     1      59.049  72.132  40.864  0.00  0.00    +0.000 C 
ATOM     12  C   UNL     1      56.448  71.923  42.750  0.00  0.00    +0.000 A 
ATOM     13  C   UNL     1      56.222  69.430  37.972  0.00  0.00    +0.000 C 
ENDROOT
BRANCH  12  17
ATOM     14  F   UNL     1      56.927  72.065  45.082  0.00  0.00    +0.000 F 
ATOM     15  F   UNL     1      58.115  73.269  43.741  0.00  0.00    +0.000 F 
ATOM     16  F   UNL     1      58.394  71.106  43.801  0.00  0.00    +0.000 F 
ATOM     17  C   UNL     1      57.453  72.086  43.834  0.00  0.00    +0.000 C 
ENDBRANCH  12  17
BRANCH  13  18
ATOM     18  C   UNL     1      57.549  68.888  37.456  0.00  0.00    +0.000 C 
BRANCH  18  19
ATOM     19  C   UNL     1      57.893  69.260  36.007  0.00  0.00    +0.000 C 
BRANCH  19  20
ATOM     20  N   UNL     1      57.025  70.325  35.486  0.00  0.00    +0.000 NA
ATOM     21  H   UNL     1      57.553  71.197  35.450  0.00  0.00    +0.000 HD
ATOM     22  H   UNL     1      56.291  70.507  36.184  0.00  0.00    +0.000 HD
ENDBRANCH  19  20
BRANCH  19  23
ATOM     23  C   UNL     1      57.839  68.016  35.078  0.00  0.00    +0.000 C 
BRANCH  23  27
ATOM     24  F   UNL     1      57.388  68.879  32.399  0.00  0.00    +0.000 F 
ATOM     25  F   UNL     1      53.268  66.274  34.831  0.00  0.00    +0.000 F 
ATOM     26  F   UNL     1      53.016  67.157  32.250  0.00  0.00    +0.000 F 
ATOM     27  C   UNL     1      56.535  67.808  34.335  0.00  0.00    +0.000 A 
ATOM     28  C   UNL     1      56.374  68.254  33.018  0.00  0.00    +0.000 A 
ATOM     29  C   UNL     1      55.464  67.130  34.946  0.00  0.00    +0.000 A 
ATOM     30  C   UNL     1      54.283  66.921  34.237  0.00  0.00    +0.000 A 
ATOM     31  C   UNL     1      55.196  68.040  32.306  0.00  0.00    +0.000 A 
ATOM     32  C   UNL     1      54.153  67.370  32.930  0.00  0.00    +0.000 A 
ENDBRANCH  23  27
ENDBRANCH  19  23
ENDBRANCH  18  19
ENDBRANCH  13  18
TORSDOF 6
ENDMDL
MODEL 4
REMARK VINA RESULT:      -7.7     22.775     25.014
REMARK  Name = 10478099
REMARK  8 active torsions:
REMARK  status: ('A' for Active; 'I' for Inactive)
REMARK    1  A    between atoms: N_12  and  C_22
REMARK    2  A    between atoms: C_13  and  C_17
REMARK    3  A    between atoms: C_13  and  C_18
REMARK    4  A    between atoms: C_19  and  C_23
REMARK    5  A    between atoms: C_20  and  C_21
REMARK    6  A    between atoms: C_21  and  C_22
REMARK    7  A    between atoms: C_22  and  C_24
REMARK    8  A    between atoms: C_24  and  C_25
REMARK                            x       y       z     vdW  Elec       q    Type
REMARK                         _______ _______ _______ _____ _____    ______ ____
ROOT
ATOM      1  O   UNL     1      28.509  62.957  39.579  0.00  0.00    +0.000 OA
ATOM      2  N   UNL     1      30.879  65.048  43.246  0.00  0.00    +0.000 N 
ATOM      3  N   UNL     1      29.071  64.520  41.163  0.00  0.00    +0.000 N 
ATOM      4  N   UNL     1      30.518  63.119  44.246  0.00  0.00    +0.000 NA
ATOM      5  N   UNL     1      31.521  63.768  44.901  0.00  0.00    +0.000 NA
ATOM      6  C   UNL     1      30.689  66.092  42.225  0.00  0.00    +0.000 C 
ATOM      7  C   UNL     1      29.275  65.896  41.600  0.00  0.00    +0.000 C 
ATOM      8  C   UNL     1      29.102  63.519  42.223  0.00  0.00    +0.000 C 
ATOM      9  C   UNL     1      30.150  63.866  43.232  0.00  0.00    +0.000 A 
ATOM     10  C   UNL     1      31.762  65.930  41.130  0.00  0.00    +0.000 C 
ATOM     11  C   UNL     1      30.686  67.532  42.764  0.00  0.00    +0.000 C 
ATOM     12  C   UNL     1      31.775  64.913  44.287  0.00  0.00    +0.000 A 
ATOM     13  C   UNL     1      28.796  64.119  39.861  0.00  0.00    +0.000 C 
ENDROOT
BRANCH  12  17
ATOM     14  F   UNL     1      33.603  66.317  43.673  0.00  0.00    +0.000 F 
ATOM     15  F   UNL     1      33.752  65.237  45.536  0.00  0.00    +0.000 F 
ATOM     16  F   UNL     1      32.379  66.923  45.360  0.00  0.00    +0.000 F 
ATOM     17  C   UNL     1      32.863  65.838  44.702  0.00  0.00    +0.000 C 
ENDBRANCH  12  17
BRANCH  13  18
ATOM     18  C   UNL     1      28.921  65.193  38.789  0.00  0.00    +0.000 C 
BRANCH  18  19
ATOM     19  C   UNL     1      29.836  64.844  37.607  0.00  0.00    +0.000 C 
BRANCH  19  20
ATOM     20  N   UNL     1      31.072  64.177  38.041  0.00  0.00    +0.000 NA
ATOM     21  H   UNL     1      30.896  63.176  38.133  0.00  0.00    +0.000 HD
ATOM     22  H   UNL     1      31.277  64.482  39.002  0.00  0.00    +0.000 HD
ENDBRANCH  19  20
BRANCH  19  23
ATOM     23  C   UNL     1      30.170  66.103  36.761  0.00  0.00    +0.000 C 
BRANCH  23  27
ATOM     24  F   UNL     1      28.886  65.167  34.394  0.00  0.00    +0.000 F 
ATOM     25  F   UNL     1      26.798  69.655  36.669  0.00  0.00    +0.000 F 
ATOM     26  F   UNL     1      25.678  68.604  34.401  0.00  0.00    +0.000 F 
ATOM     27  C   UNL     1      28.984  66.793  36.117  0.00  0.00    +0.000 A 
ATOM     28  C   UNL     1      28.395  66.284  34.954  0.00  0.00    +0.000 A 
ATOM     29  C   UNL     1      28.428  67.948  36.696  0.00  0.00    +0.000 A 
ATOM     30  C   UNL     1      27.319  68.553  36.107  0.00  0.00    +0.000 A 
ATOM     31  C   UNL     1      27.282  66.883  34.368  0.00  0.00    +0.000 A 
ATOM     32  C   UNL     1      26.752  68.023  34.956  0.00  0.00    +0.000 A 
ENDBRANCH  23  27
ENDBRANCH  19  23
ENDBRANCH  18  19
ENDBRANCH  13  18
TORSDOF 6
ENDMDL
MODEL 5
REMARK VINA RESULT:      -7.5      4.444      8.237
REMARK  Name = 10478099
REMARK  8 active torsions:
REMARK  status: ('A' for Active; 'I' for Inactive)
REMARK    1  A    between atoms: N_12  and  C_22
REMARK    2  A    between atoms: C_13  and  C_17
REMARK    3  A    between atoms: C_13  and  C_18
REMARK    4  A    between atoms: C_19  and  C_23
REMARK    5  A    between atoms: C_20  and  C_21
REMARK    6  A    between atoms: C_21  and  C_22
REMARK    7  A    between atoms: C_22  and  C_24
REMARK    8  A    between atoms: C_24  and  C_25
REMARK                            x       y       z     vdW  Elec       q    Type
REMARK                         _______ _______ _______ _____ _____    ______ ____
ROOT
ATOM      1  O   UNL     1      56.001  68.200  38.219  0.00  0.00    +0.000 OA
ATOM      2  N   UNL     1      56.586  71.489  41.723  0.00  0.00    +0.000 N 
ATOM      3  N   UNL     1      56.850  70.006  39.352  0.00  0.00    +0.000 N 
ATOM      4  N   UNL     1      54.412  71.751  41.490  0.00  0.00    +0.000 NA
ATOM      5  N   UNL     1      54.786  72.267  42.694  0.00  0.00    +0.000 NA
ATOM      6  C   UNL     1      57.937  71.041  41.343  0.00  0.00    +0.000 C 
ATOM      7  C   UNL     1      57.957  70.844  39.797  0.00  0.00    +0.000 C 
ATOM      8  C   UNL     1      55.520  70.552  39.595  0.00  0.00    +0.000 C 
ATOM      9  C   UNL     1      55.481  71.252  40.916  0.00  0.00    +0.000 A 
ATOM     10  C   UNL     1      58.238  69.697  42.037  0.00  0.00    +0.000 C 
ATOM     11  C   UNL     1      59.058  72.054  41.627  0.00  0.00    +0.000 C 
ATOM     12  C   UNL     1      56.087  72.082  42.864  0.00  0.00    +0.000 A 
ATOM     13  C   UNL     1      56.973  68.796  38.680  0.00  0.00    +0.000 C 
ENDROOT
BRANCH  12  17
ATOM     14  F   UNL     1      57.539  71.463  44.651  0.00  0.00    +0.000 F 
ATOM     15  F   UNL     1      55.960  72.869  45.087  0.00  0.00    +0.000 F 
ATOM     16  F   UNL     1      57.674  73.491  43.888  0.00  0.00    +0.000 F 
ATOM     17  C   UNL     1      56.810  72.465  44.106  0.00  0.00    +0.000 C 
ENDBRANCH  12  17
BRANCH  13  18
ATOM     18  C   UNL     1      58.380  68.221  38.588  0.00  0.00    +0.000 C 
BRANCH  18  19
ATOM     19  C   UNL     1      58.586  66.867  39.281  0.00  0.00    +0.000 C 
BRANCH  19  20
ATOM     20  N   UNL     1      57.339  66.344  39.858  0.00  0.00    +0.000 NA
ATOM     21  H   UNL     1      57.235  66.702  40.807  0.00  0.00    +0.000 HD
ATOM     22  H   UNL     1      57.450  65.329  39.987  0.00  0.00    +0.000 HD
ENDBRANCH  19  20
BRANCH  19  23
ATOM     23  C   UNL     1      59.691  66.952  40.369  0.00  0.00    +0.000 C 
BRANCH  23  27
ATOM     24  F   UNL     1      60.943  64.468  39.749  0.00  0.00    +0.000 F 
ATOM     25  F   UNL     1      58.787  64.916  44.731  0.00  0.00    +0.000 F 
ATOM     26  F   UNL     1      60.047  62.606  43.972  0.00  0.00    +0.000 F 
ATOM     27  C   UNL     1      59.758  65.781  41.329  0.00  0.00    +0.000 A 
ATOM     28  C   UNL     1      60.390  64.585  40.966  0.00  0.00    +0.000 A 
ATOM     29  C   UNL     1      59.214  65.883  42.622  0.00  0.00    +0.000 A 
ATOM     30  C   UNL     1      59.312  64.806  43.501  0.00  0.00    +0.000 A 
ATOM     31  C   UNL     1      60.494  63.511  41.846  0.00  0.00    +0.000 A 
ATOM     32  C   UNL     1      59.948  63.634  43.116  0.00  0.00    +0.000 A 
ENDBRANCH  23  27
ENDBRANCH  19  23
ENDBRANCH  18  19
ENDBRANCH  13  18
TORSDOF 6
ENDMDL
MODEL 6
REMARK VINA RESULT:      -7.3     22.996     24.736
REMARK  Name = 10478099
REMARK  8 active torsions:
REMARK  status: ('A' for Active; 'I' for Inactive)
REMARK    1  A    between atoms: N_12  and  C_22
REMARK    2  A    between atoms: C_13  and  C_17
REMARK    3  A    between atoms: C_13  and  C_18
REMARK    4  A    between atoms: C_19  and  C_23
REMARK    5  A    between atoms: C_20  and  C_21
REMARK    6  A    between atoms: C_21  and  C_22
REMARK    7  A    between atoms: C_22  and  C_24
REMARK    8  A    between atoms: C_24  and  C_25
REMARK                            x       y       z     vdW  Elec       q    Type
REMARK                         _______ _______ _______ _____ _____    ______ ____
ROOT
ATOM      1  O   UNL     1      28.640  63.598  38.984  0.00  0.00    +0.000 OA
ATOM      2  N   UNL     1      30.699  64.477  43.276  0.00  0.00    +0.000 N 
ATOM      3  N   UNL     1      29.090  64.637  40.980  0.00  0.00    +0.000 N 
ATOM      4  N   UNL     1      30.183  62.372  43.669  0.00  0.00    +0.000 NA
ATOM      5  N   UNL     1      31.136  62.761  44.562  0.00  0.00    +0.000 NA
ATOM      6  C   UNL     1      30.643  65.768  42.570  0.00  0.00    +0.000 C 
ATOM      7  C   UNL     1      29.292  65.829  41.795  0.00  0.00    +0.000 C 
ATOM      8  C   UNL     1      28.986  63.386  41.721  0.00  0.00    +0.000 C 
ATOM      9  C   UNL     1      29.940  63.386  42.873  0.00  0.00    +0.000 A 
ATOM     10  C   UNL     1      31.813  65.849  41.570  0.00  0.00    +0.000 C 
ATOM     11  C   UNL     1      30.631  67.005  43.484  0.00  0.00    +0.000 C 
ATOM     12  C   UNL     1      31.484  64.014  44.312  0.00  0.00    +0.000 A 
ATOM     13  C   UNL     1      28.934  64.622  39.599  0.00  0.00    +0.000 C 
ENDROOT
BRANCH  12  17
ATOM     14  F   UNL     1      32.105  65.750  45.825  0.00  0.00    +0.000 F 
ATOM     15  F   UNL     1      33.477  65.277  44.227  0.00  0.00    +0.000 F 
ATOM     16  F   UNL     1      33.227  63.893  45.895  0.00  0.00    +0.000 F 
ATOM     17  C   UNL     1      32.554  64.727  45.059  0.00  0.00    +0.000 C 
ENDBRANCH  12  17
BRANCH  13  18
ATOM     18  C   UNL     1      29.196  65.938  38.881  0.00  0.00    +0.000 C 
BRANCH  18  19
ATOM     19  C   UNL     1      30.608  66.105  38.303  0.00  0.00    +0.000 C 
BRANCH  19  20
ATOM     20  N   UNL     1      30.912  67.505  37.974  0.00  0.00    +0.000 NA
ATOM     21  H   UNL     1      30.065  68.064  38.083  0.00  0.00    +0.000 HD
ATOM     22  H   UNL     1      31.115  67.558  36.966  0.00  0.00    +0.000 HD
ENDBRANCH  19  20
BRANCH  19  23
ATOM     23  C   UNL     1      30.818  65.200  37.058  0.00  0.00    +0.000 C 
BRANCH  23  27
ATOM     24  F   UNL     1      28.185  64.639  36.121  0.00  0.00    +0.000 F 
ATOM     25  F   UNL     1      31.227  67.899  32.991  0.00  0.00    +0.000 F 
ATOM     26  F   UNL     1      28.665  67.271  32.255  0.00  0.00    +0.000 F 
ATOM     27  C   UNL     1      30.257  65.734  35.756  0.00  0.00    +0.000 A 
ATOM     28  C   UNL     1      28.953  65.425  35.350  0.00  0.00    +0.000 A 
ATOM     29  C   UNL     1      31.026  66.584  34.940  0.00  0.00    +0.000 A 
ATOM     30  C   UNL     1      30.482  67.091  33.761  0.00  0.00    +0.000 A 
ATOM     31  C   UNL     1      28.406  65.936  34.175  0.00  0.00    +0.000 A 
ATOM     32  C   UNL     1      29.185  66.771  33.385  0.00  0.00    +0.000 A 
ENDBRANCH  23  27
ENDBRANCH  19  23
ENDBRANCH  18  19
ENDBRANCH  13  18
TORSDOF 6
ENDMDL
MODEL 7
REMARK VINA RESULT:      -7.2     22.978     25.508
REMARK  Name = 10478099
REMARK  8 active torsions:
REMARK  status: ('A' for Active; 'I' for Inactive)
REMARK    1  A    between atoms: N_12  and  C_22
REMARK    2  A    between atoms: C_13  and  C_17
REMARK    3  A    between atoms: C_13  and  C_18
REMARK    4  A    between atoms: C_19  and  C_23
REMARK    5  A    between atoms: C_20  and  C_21
REMARK    6  A    between atoms: C_21  and  C_22
REMARK    7  A    between atoms: C_22  and  C_24
REMARK    8  A    between atoms: C_24  and  C_25
REMARK                            x       y       z     vdW  Elec       q    Type
REMARK                         _______ _______ _______ _____ _____    ______ ____
ROOT
ATOM      1  O   UNL     1      28.686  63.199  40.588  0.00  0.00    +0.000 OA
ATOM      2  N   UNL     1      28.718  65.735  36.464  0.00  0.00    +0.000 N 
ATOM      3  N   UNL     1      29.493  64.431  38.827  0.00  0.00    +0.000 N 
ATOM      4  N   UNL     1      27.647  63.980  35.674  0.00  0.00    +0.000 NA
ATOM      5  N   UNL     1      27.443  65.031  34.830  0.00  0.00    +0.000 NA
ATOM      6  C   UNL     1      29.541  66.490  37.423  0.00  0.00    +0.000 C 
ATOM      7  C   UNL     1      30.355  65.463  38.266  0.00  0.00    +0.000 C 
ATOM      8  C   UNL     1      28.814  63.588  37.851  0.00  0.00    +0.000 C 
ATOM      9  C   UNL     1      28.383  64.403  36.674  0.00  0.00    +0.000 A 
ATOM     10  C   UNL     1      28.617  67.301  38.354  0.00  0.00    +0.000 C 
ATOM     11  C   UNL     1      30.599  67.407  36.786  0.00  0.00    +0.000 C 
ATOM     12  C   UNL     1      28.051  66.104  35.314  0.00  0.00    +0.000 A 
ATOM     13  C   UNL     1      29.329  64.165  40.182  0.00  0.00    +0.000 C 
ENDROOT
BRANCH  12  17
ATOM     14  F   UNL     1      27.676  68.449  35.532  0.00  0.00    +0.000 F 
ATOM     15  F   UNL     1      27.012  67.494  33.714  0.00  0.00    +0.000 F 
ATOM     16  F   UNL     1      29.143  67.786  34.076  0.00  0.00    +0.000 F 
ATOM     17  C   UNL     1      27.972  67.443  34.674  0.00  0.00    +0.000 C 
ENDBRANCH  12  17
BRANCH  13  18
ATOM     18  C   UNL     1      29.952  65.170  41.141  0.00  0.00    +0.000 C 
BRANCH  18  19
ATOM     19  C   UNL     1      31.391  64.863  41.577  0.00  0.00    +0.000 C 
BRANCH  19  20
ATOM     20  N   UNL     1      31.473  63.652  42.407  0.00  0.00    +0.000 NA
ATOM     21  H   UNL     1      32.366  63.647  42.900  0.00  0.00    +0.000 HD
ATOM     22  H   UNL     1      31.532  62.839  41.778  0.00  0.00    +0.000 HD
ENDBRANCH  19  20
BRANCH  19  23
ATOM     23  C   UNL     1      32.025  66.071  42.320  0.00  0.00    +0.000 C 
BRANCH  23  27
ATOM     24  F   UNL     1      32.481  67.145  39.719  0.00  0.00    +0.000 F 
ATOM     25  F   UNL     1      29.633  70.261  43.162  0.00  0.00    +0.000 F 
ATOM     26  F   UNL     1      30.148  71.127  40.615  0.00  0.00    +0.000 F 
ATOM     27  C   UNL     1      31.544  67.439  41.878  0.00  0.00    +0.000 A 
ATOM     28  C   UNL     1      31.798  67.911  40.584  0.00  0.00    +0.000 A 
ATOM     29  C   UNL     1      30.801  68.252  42.752  0.00  0.00    +0.000 A 
ATOM     30  C   UNL     1      30.340  69.494  42.318  0.00  0.00    +0.000 A 
ATOM     31  C   UNL     1      31.333  69.149  40.148  0.00  0.00    +0.000 A 
ATOM     32  C   UNL     1      30.603  69.935  41.028  0.00  0.00    +0.000 A 
ENDBRANCH  23  27
ENDBRANCH  19  23
ENDBRANCH  18  19
ENDBRANCH  13  18
TORSDOF 6
ENDMDL
MODEL 8
REMARK VINA RESULT:      -7.2     20.370     24.961
REMARK  Name = 10478099
REMARK  8 active torsions:
REMARK  status: ('A' for Active; 'I' for Inactive)
REMARK    1  A    between atoms: N_12  and  C_22
REMARK    2  A    between atoms: C_13  and  C_17
REMARK    3  A    between atoms: C_13  and  C_18
REMARK    4  A    between atoms: C_19  and  C_23
REMARK    5  A    between atoms: C_20  and  C_21
REMARK    6  A    between atoms: C_21  and  C_22
REMARK    7  A    between atoms: C_22  and  C_24
REMARK    8  A    between atoms: C_24  and  C_25
REMARK                            x       y       z     vdW  Elec       q    Type
REMARK                         _______ _______ _______ _____ _____    ______ ____
ROOT
ATOM      1  O   UNL     1      29.157  63.407  40.780  0.00  0.00    +0.000 OA
ATOM      2  N   UNL     1      28.703  65.825  36.611  0.00  0.00    +0.000 N 
ATOM      3  N   UNL     1      29.734  64.676  38.957  0.00  0.00    +0.000 N 
ATOM      4  N   UNL     1      27.800  63.942  35.911  0.00  0.00    +0.000 NA
ATOM      5  N   UNL     1      27.439  64.942  35.058  0.00  0.00    +0.000 NA
ATOM      6  C   UNL     1      29.481  66.692  37.512  0.00  0.00    +0.000 C 
ATOM      7  C   UNL     1      30.446  65.784  38.332  0.00  0.00    +0.000 C 
ATOM      8  C   UNL     1      29.108  63.738  38.033  0.00  0.00    +0.000 C 
ATOM      9  C   UNL     1      28.531  64.470  36.864  0.00  0.00    +0.000 A 
ATOM     10  C   UNL     1      28.518  67.418  38.472  0.00  0.00    +0.000 C 
ATOM     11  C   UNL     1      30.397  67.705  36.804  0.00  0.00    +0.000 C 
ATOM     12  C   UNL     1      27.944  66.087  35.489  0.00  0.00    +0.000 A 
ATOM     13  C   UNL     1      29.667  64.428  40.323  0.00  0.00    +0.000 C 
ENDROOT
BRANCH  12  17
ATOM     14  F   UNL     1      26.579  67.405  34.044  0.00  0.00    +0.000 F 
ATOM     15  F   UNL     1      28.706  67.766  34.014  0.00  0.00    +0.000 F 
ATOM     16  F   UNL     1      27.519  68.393  35.733  0.00  0.00    +0.000 F 
ATOM     17  C   UNL     1      27.684  67.393  34.827  0.00  0.00    +0.000 C 
ENDBRANCH  12  17
BRANCH  13  18
ATOM     18  C   UNL     1      30.217  65.521  41.230  0.00  0.00    +0.000 C 
BRANCH  18  19
ATOM     19  C   UNL     1      31.644  65.292  41.748  0.00  0.00    +0.000 C 
BRANCH  19  20
ATOM     20  N   UNL     1      32.077  63.897  41.580  0.00  0.00    +0.000 NA
ATOM     21  H   UNL     1      33.082  63.839  41.744  0.00  0.00    +0.000 HD
ATOM     22  H   UNL     1      31.973  63.649  40.586  0.00  0.00    +0.000 HD
ENDBRANCH  19  20
BRANCH  19  23
ATOM     23  C   UNL     1      31.780  65.724  43.234  0.00  0.00    +0.000 C 
BRANCH  23  27
ATOM     24  F   UNL     1      32.527  68.405  42.618  0.00  0.00    +0.000 F 
ATOM     25  F   UNL     1      36.156  65.460  45.416  0.00  0.00    +0.000 F 
ATOM     26  F   UNL     1      36.700  68.063  44.756  0.00  0.00    +0.000 F 
ATOM     27  C   UNL     1      33.111  66.336  43.620  0.00  0.00    +0.000 A 
ATOM     28  C   UNL     1      33.420  67.662  43.290  0.00  0.00    +0.000 A 
ATOM     29  C   UNL     1      34.056  65.593  44.349  0.00  0.00    +0.000 A 
ATOM     30  C   UNL     1      35.263  66.182  44.722  0.00  0.00    +0.000 A 
ATOM     31  C   UNL     1      34.623  68.253  43.667  0.00  0.00    +0.000 A 
ATOM     32  C   UNL     1      35.541  67.499  44.385  0.00  0.00    +0.000 A 
ENDBRANCH  23  27
ENDBRANCH  19  23
ENDBRANCH  18  19
ENDBRANCH  13  18
TORSDOF 6
ENDMDL
MODEL 9
REMARK VINA RESULT:      -7.1     21.843     25.437
REMARK  Name = 10478099
REMARK  8 active torsions:
REMARK  status: ('A' for Active; 'I' for Inactive)
REMARK    1  A    between atoms: N_12  and  C_22
REMARK    2  A    between atoms: C_13  and  C_17
REMARK    3  A    between atoms: C_13  and  C_18
REMARK    4  A    between atoms: C_19  and  C_23
REMARK    5  A    between atoms: C_20  and  C_21
REMARK    6  A    between atoms: C_21  and  C_22
REMARK    7  A    between atoms: C_22  and  C_24
REMARK    8  A    between atoms: C_24  and  C_25
REMARK                            x       y       z     vdW  Elec       q    Type
REMARK                         _______ _______ _______ _____ _____    ______ ____
ROOT
ATOM      1  O   UNL     1      28.665  63.219  40.711  0.00  0.00    +0.000 OA
ATOM      2  N   UNL     1      28.841  65.738  36.580  0.00  0.00    +0.000 N 
ATOM      3  N   UNL     1      29.517  64.506  39.012  0.00  0.00    +0.000 N 
ATOM      4  N   UNL     1      27.981  63.903  35.720  0.00  0.00    +0.000 NA
ATOM      5  N   UNL     1      27.767  64.931  34.853  0.00  0.00    +0.000 NA
ATOM      6  C   UNL     1      29.519  66.559  37.598  0.00  0.00    +0.000 C 
ATOM      7  C   UNL     1      30.339  65.602  38.514  0.00  0.00    +0.000 C 
ATOM      8  C   UNL     1      28.990  63.609  37.990  0.00  0.00    +0.000 C 
ATOM      9  C   UNL     1      28.596  64.385  36.774  0.00  0.00    +0.000 A 
ATOM     10  C   UNL     1      28.460  67.297  38.441  0.00  0.00    +0.000 C 
ATOM     11  C   UNL     1      30.552  67.555  37.042  0.00  0.00    +0.000 C 
ATOM     12  C   UNL     1      28.246  66.050  35.375  0.00  0.00    +0.000 A 
ATOM     13  C   UNL     1      29.262  64.232  40.351  0.00  0.00    +0.000 C 
ENDROOT
BRANCH  12  17
ATOM     14  F   UNL     1      27.642  68.352  35.532  0.00  0.00    +0.000 F 
ATOM     15  F   UNL     1      27.261  67.343  33.663  0.00  0.00    +0.000 F 
ATOM     16  F   UNL     1      29.307  67.824  34.244  0.00  0.00    +0.000 F 
ATOM     17  C   UNL     1      28.115  67.378  34.719  0.00  0.00    +0.000 C 
ENDBRANCH  12  17
BRANCH  13  18
ATOM     18  C   UNL     1      29.721  65.286  41.349  0.00  0.00    +0.000 C 
BRANCH  18  19
ATOM     19  C   UNL     1      29.375  64.999  42.817  0.00  0.00    +0.000 C 
BRANCH  19  20
ATOM     20  N   UNL     1      27.953  64.678  42.999  0.00  0.00    +0.000 NA
ATOM     21  H   UNL     1      27.640  64.099  42.220  0.00  0.00    +0.000 HD
ATOM     22  H   UNL     1      27.414  65.549  42.894  0.00  0.00    +0.000 HD
ENDBRANCH  19  20
BRANCH  19  23
ATOM     23  C   UNL     1      29.783  66.186  43.734  0.00  0.00    +0.000 C 
BRANCH  23  27
ATOM     24  F   UNL     1      31.871  64.625  44.887  0.00  0.00    +0.000 F 
ATOM     25  F   UNL     1      33.386  69.198  42.344  0.00  0.00    +0.000 F 
ATOM     26  F   UNL     1      35.263  67.566  43.492  0.00  0.00    +0.000 F 
ATOM     27  C   UNL     1      31.246  66.575  43.690  0.00  0.00    +0.000 A 
ATOM     28  C   UNL     1      32.228  65.765  44.274  0.00  0.00    +0.000 A 
ATOM     29  C   UNL     1      31.656  67.748  43.031  0.00  0.00    +0.000 A 
ATOM     30  C   UNL     1      33.009  68.075  42.975  0.00  0.00    +0.000 A 
ATOM     31  C   UNL     1      33.581  66.087  44.214  0.00  0.00    +0.000 A 
ATOM     32  C   UNL     1      33.961  67.251  43.559  0.00  0.00    +0.000 A 
ENDBRANCH  23  27
ENDBRANCH  19  23
ENDBRANCH  18  19
ENDBRANCH  13  18
TORSDOF 6
ENDMDL
