MODEL 1
REMARK VINA RESULT:      -7.9      0.000      0.000
REMARK  Name = 23647146
REMARK  8 active torsions:
REMARK  status: ('A' for Active; 'I' for Inactive)
REMARK    1  A    between atoms: N_10  and  C_14
REMARK    2  A    between atoms: C_13  and  C_14
REMARK    3  A    between atoms: C_13  and  C_16
REMARK    4  A    between atoms: C_13  and  C_19
REMARK    5  A    between atoms: C_14  and  C_20
REMARK    6  A    between atoms: C_19  and  C_24
REMARK    7  A    between atoms: C_20  and  C_23
REMARK    8  A    between atoms: C_22  and  C_25
REMARK                            x       y       z     vdW  Elec       q    Type
REMARK                         _______ _______ _______ _____ _____    ______ ____
ROOT
ATOM      1  C   UNL     1      54.952  70.234  40.749  0.00  0.00    +0.000 C 
ENDROOT
BRANCH   1   8
ATOM      2  O   UNL     1      53.881  70.788  42.838  0.00  0.00    +0.000 OA
ATOM      3  N   UNL     1      52.442  70.291  41.140  0.00  0.00    +0.000 N 
ATOM      4  N   UNL     1      50.140  71.347  39.988  0.00  0.00    +0.000 N 
ATOM      5  N   UNL     1      48.992  71.500  41.831  0.00  0.00    +0.000 NA
ATOM      6  N   UNL     1      48.259  72.059  40.807  0.00  0.00    +0.000 NA
ATOM      7  C   UNL     1      52.110  69.925  39.761  0.00  0.00    +0.000 C 
ATOM      8  C   UNL     1      53.721  70.456  41.659  0.00  0.00    +0.000 C 
ATOM      9  C   UNL     1      51.286  70.440  42.041  0.00  0.00    +0.000 C 
ATOM     10  C   UNL     1      51.246  71.011  39.120  0.00  0.00    +0.000 C 
ATOM     11  C   UNL     1      50.144  71.100  41.336  0.00  0.00    +0.000 A 
ATOM     12  C   UNL     1      48.972  71.993  39.693  0.00  0.00    +0.000 A 
BRANCH  12  16
ATOM     13  F   UNL     1      48.371  71.521  37.447  0.00  0.00    +0.000 F 
ATOM     14  F   UNL     1      49.581  73.287  37.803  0.00  0.00    +0.000 F 
ATOM     15  F   UNL     1      47.474  73.263  38.383  0.00  0.00    +0.000 F 
ATOM     16  C   UNL     1      48.607  72.515  38.350  0.00  0.00    +0.000 C 
ENDBRANCH  12  16
ENDBRANCH   1   8
BRANCH   1  17
ATOM     17  C   UNL     1      56.023  71.350  40.990  0.00  0.00    +0.000 C 
BRANCH  17  18
ATOM     18  N   UNL     1      55.379  72.626  41.354  0.00  0.00    +0.000 NA
ATOM     19  H   UNL     1      54.450  72.443  41.744  0.00  0.00    +0.000 HD
ATOM     20  H   UNL     1      55.204  73.164  40.503  0.00  0.00    +0.000 HD
ENDBRANCH  17  18
BRANCH  17  21
ATOM     21  C   UNL     1      56.944  71.575  39.757  0.00  0.00    +0.000 C 
BRANCH  21  25
ATOM     22  F   UNL     1      58.690  69.915  38.242  0.00  0.00    +0.000 F 
ATOM     23  F   UNL     1      60.965  72.797  42.263  0.00  0.00    +0.000 F 
ATOM     24  F   UNL     1      62.493  71.113  40.738  0.00  0.00    +0.000 F 
ATOM     25  C   UNL     1      58.432  71.468  40.018  0.00  0.00    +0.000 A 
ATOM     26  C   UNL     1      59.239  70.613  39.248  0.00  0.00    +0.000 A 
ATOM     27  C   UNL     1      59.036  72.216  41.037  0.00  0.00    +0.000 A 
ATOM     28  C   UNL     1      60.403  72.087  41.275  0.00  0.00    +0.000 A 
ATOM     29  C   UNL     1      60.605  70.491  39.477  0.00  0.00    +0.000 A 
ATOM     30  C   UNL     1      61.180  71.229  40.502  0.00  0.00    +0.000 A 
ENDBRANCH  21  25
ENDBRANCH  17  21
ENDBRANCH   1  17
BRANCH   1  31
ATOM     31  C   UNL     1      55.527  68.815  41.024  0.00  0.00    +0.000 C 
BRANCH  31  32
ATOM     32  C   UNL     1      56.670  68.813  42.008  0.00  0.00    +0.000 C 
ATOM     33  C   UNL     1      56.625  68.236  43.216  0.00  0.00    +0.000 C 
ENDBRANCH  31  32
ENDBRANCH   1  31
TORSDOF 8
ENDMDL
MODEL 2
REMARK VINA RESULT:      -7.9      2.021      2.895
REMARK  Name = 23647146
REMARK  8 active torsions:
REMARK  status: ('A' for Active; 'I' for Inactive)
REMARK    1  A    between atoms: N_10  and  C_14
REMARK    2  A    between atoms: C_13  and  C_14
REMARK    3  A    between atoms: C_13  and  C_16
REMARK    4  A    between atoms: C_13  and  C_19
REMARK    5  A    between atoms: C_14  and  C_20
REMARK    6  A    between atoms: C_19  and  C_24
REMARK    7  A    between atoms: C_20  and  C_23
REMARK    8  A    between atoms: C_22  and  C_25
REMARK                            x       y       z     vdW  Elec       q    Type
REMARK                         _______ _______ _______ _____ _____    ______ ____
ROOT
ATOM      1  C   UNL     1      55.169  70.259  40.629  0.00  0.00    +0.000 C 
ENDROOT
BRANCH   1   8
ATOM      2  O   UNL     1      54.112  70.673  42.758  0.00  0.00    +0.000 OA
ATOM      3  N   UNL     1      52.663  70.244  41.049  0.00  0.00    +0.000 N 
ATOM      4  N   UNL     1      50.328  71.319  39.984  0.00  0.00    +0.000 N 
ATOM      5  N   UNL     1      49.199  71.343  41.844  0.00  0.00    +0.000 NA
ATOM      6  N   UNL     1      48.443  71.945  40.862  0.00  0.00    +0.000 NA
ATOM      7  C   UNL     1      52.322  69.952  39.655  0.00  0.00    +0.000 C 
ATOM      8  C   UNL     1      53.945  70.405  41.563  0.00  0.00    +0.000 C 
ATOM      9  C   UNL     1      51.515  70.319  41.969  0.00  0.00    +0.000 C 
ATOM     10  C   UNL     1      51.430  71.054  39.086  0.00  0.00    +0.000 C 
ATOM     11  C   UNL     1      50.352  70.995  41.316  0.00  0.00    +0.000 A 
ATOM     12  C   UNL     1      49.144  71.957  39.738  0.00  0.00    +0.000 A 
BRANCH  12  16
ATOM     13  F   UNL     1      49.746  73.301  37.880  0.00  0.00    +0.000 F 
ATOM     14  F   UNL     1      47.676  73.368  38.526  0.00  0.00    +0.000 F 
ATOM     15  F   UNL     1      48.454  71.596  37.510  0.00  0.00    +0.000 F 
ATOM     16  C   UNL     1      48.754  72.547  38.432  0.00  0.00    +0.000 C 
ENDBRANCH  12  16
ENDBRANCH   1   8
BRANCH   1  17
ATOM     17  C   UNL     1      55.927  71.623  40.499  0.00  0.00    +0.000 C 
BRANCH  17  18
ATOM     18  N   UNL     1      55.344  72.636  41.398  0.00  0.00    +0.000 NA
ATOM     19  H   UNL     1      54.901  72.172  42.197  0.00  0.00    +0.000 HD
ATOM     20  H   UNL     1      54.579  73.109  40.913  0.00  0.00    +0.000 HD
ENDBRANCH  17  18
BRANCH  17  21
ATOM     21  C   UNL     1      55.931  72.171  39.044  0.00  0.00    +0.000 C 
BRANCH  21  25
ATOM     22  F   UNL     1      54.497  71.063  36.850  0.00  0.00    +0.000 F 
ATOM     23  F   UNL     1      59.780  69.789  37.188  0.00  0.00    +0.000 F 
ATOM     24  F   UNL     1      58.242  68.768  35.165  0.00  0.00    +0.000 F 
ATOM     25  C   UNL     1      56.561  71.272  38.001  0.00  0.00    +0.000 A 
ATOM     26  C   UNL     1      55.795  70.738  36.952  0.00  0.00    +0.000 A 
ATOM     27  C   UNL     1      57.924  70.949  38.064  0.00  0.00    +0.000 A 
ATOM     28  C   UNL     1      58.479  70.101  37.108  0.00  0.00    +0.000 A 
ATOM     29  C   UNL     1      56.351  69.900  35.990  0.00  0.00    +0.000 A 
ATOM     30  C   UNL     1      57.698  69.581  36.081  0.00  0.00    +0.000 A 
ENDBRANCH  21  25
ENDBRANCH  17  21
ENDBRANCH   1  17
BRANCH   1  31
ATOM     31  C   UNL     1      56.092  69.138  41.185  0.00  0.00    +0.000 C 
BRANCH  31  32
ATOM     32  C   UNL     1      57.363  69.663  41.805  0.00  0.00    +0.000 C 
ATOM     33  C   UNL     1      57.603  69.697  43.122  0.00  0.00    +0.000 C 
ENDBRANCH  31  32
ENDBRANCH   1  31
TORSDOF 8
ENDMDL
MODEL 3
REMARK VINA RESULT:      -7.6      3.482      8.854
REMARK  Name = 23647146
REMARK  8 active torsions:
REMARK  status: ('A' for Active; 'I' for Inactive)
REMARK    1  A    between atoms: N_10  and  C_14
REMARK    2  A    between atoms: C_13  and  C_14
REMARK    3  A    between atoms: C_13  and  C_16
REMARK    4  A    between atoms: C_13  and  C_19
REMARK    5  A    between atoms: C_14  and  C_20
REMARK    6  A    between atoms: C_19  and  C_24
REMARK    7  A    between atoms: C_20  and  C_23
REMARK    8  A    between atoms: C_22  and  C_25
REMARK                            x       y       z     vdW  Elec       q    Type
REMARK                         _______ _______ _______ _____ _____    ______ ____
ROOT
ATOM      1  C   UNL     1      54.309  69.308  37.202  0.00  0.00    +0.000 C 
ENDROOT
BRANCH   1   8
ATOM      2  O   UNL     1      56.269  70.375  36.285  0.00  0.00    +0.000 OA
ATOM      3  N   UNL     1      56.434  69.831  38.494  0.00  0.00    +0.000 N 
ATOM      4  N   UNL     1      57.226  71.028  40.878  0.00  0.00    +0.000 N 
ATOM      5  N   UNL     1      59.186  71.675  40.187  0.00  0.00    +0.000 NA
ATOM      6  N   UNL     1      58.985  72.161  41.460  0.00  0.00    +0.000 NA
ATOM      7  C   UNL     1      55.926  69.293  39.758  0.00  0.00    +0.000 C 
ATOM      8  C   UNL     1      55.745  69.876  37.287  0.00  0.00    +0.000 C 
ATOM      9  C   UNL     1      57.825  70.315  38.536  0.00  0.00    +0.000 C 
ATOM     10  C   UNL     1      55.937  70.377  40.836  0.00  0.00    +0.000 C 
ATOM     11  C   UNL     1      58.105  71.017  39.826  0.00  0.00    +0.000 A 
ATOM     12  C   UNL     1      57.780  71.792  41.867  0.00  0.00    +0.000 A 
BRANCH  12  16
ATOM     13  F   UNL     1      57.832  73.014  43.899  0.00  0.00    +0.000 F 
ATOM     14  F   UNL     1      56.924  71.044  43.946  0.00  0.00    +0.000 F 
ATOM     15  F   UNL     1      55.898  72.703  42.963  0.00  0.00    +0.000 F 
ATOM     16  C   UNL     1      57.114  72.129  43.152  0.00  0.00    +0.000 C 
ENDBRANCH  12  16
ENDBRANCH   1   8
BRANCH   1  17
ATOM     17  C   UNL     1      53.262  70.469  37.134  0.00  0.00    +0.000 C 
BRANCH  17  18
ATOM     18  N   UNL     1      53.916  71.749  36.803  0.00  0.00    +0.000 NA
ATOM     19  H   UNL     1      54.315  72.160  37.652  0.00  0.00    +0.000 HD
ATOM     20  H   UNL     1      53.205  72.417  36.499  0.00  0.00    +0.000 HD
ENDBRANCH  17  18
BRANCH  17  21
ATOM     21  C   UNL     1      52.458  70.632  38.455  0.00  0.00    +0.000 C 
BRANCH  21  25
ATOM     22  F   UNL     1      50.410  68.740  37.889  0.00  0.00    +0.000 F 
ATOM     23  F   UNL     1      48.844  73.929  38.403  0.00  0.00    +0.000 F 
ATOM     24  F   UNL     1      47.007  71.987  37.811  0.00  0.00    +0.000 F 
ATOM     25  C   UNL     1      50.998  71.002  38.299  0.00  0.00    +0.000 A 
ATOM     26  C   UNL     1      50.036  70.024  37.997  0.00  0.00    +0.000 A 
ATOM     27  C   UNL     1      50.577  72.330  38.445  0.00  0.00    +0.000 A 
ATOM     28  C   UNL     1      49.232  72.653  38.274  0.00  0.00    +0.000 A 
ATOM     29  C   UNL     1      48.691  70.343  37.837  0.00  0.00    +0.000 A 
ATOM     30  C   UNL     1      48.298  71.667  37.971  0.00  0.00    +0.000 A 
ENDBRANCH  21  25
ENDBRANCH  17  21
ENDBRANCH   1  17
BRANCH   1  31
ATOM     31  C   UNL     1      54.214  68.372  35.963  0.00  0.00    +0.000 C 
BRANCH  31  32
ATOM     32  C   UNL     1      52.797  68.012  35.593  0.00  0.00    +0.000 C 
ATOM     33  C   UNL     1      52.228  66.827  35.847  0.00  0.00    +0.000 C 
ENDBRANCH  31  32
ENDBRANCH   1  31
TORSDOF 8
ENDMDL
MODEL 4
REMARK VINA RESULT:      -7.3     22.284     24.457
REMARK  Name = 23647146
REMARK  8 active torsions:
REMARK  status: ('A' for Active; 'I' for Inactive)
REMARK    1  A    between atoms: N_10  and  C_14
REMARK    2  A    between atoms: C_13  and  C_14
REMARK    3  A    between atoms: C_13  and  C_16
REMARK    4  A    between atoms: C_13  and  C_19
REMARK    5  A    between atoms: C_14  and  C_20
REMARK    6  A    between atoms: C_19  and  C_24
REMARK    7  A    between atoms: C_20  and  C_23
REMARK    8  A    between atoms: C_22  and  C_25
REMARK                            x       y       z     vdW  Elec       q    Type
REMARK                         _______ _______ _______ _____ _____    ______ ____
ROOT
ATOM      1  C   UNL     1      30.872  64.980  40.954  0.00  0.00    +0.000 C 
ENDROOT
BRANCH   1   8
ATOM      2  O   UNL     1      28.734  63.920  40.598  0.00  0.00    +0.000 OA
ATOM      3  N   UNL     1      29.963  64.232  38.702  0.00  0.00    +0.000 N 
ATOM      4  N   UNL     1      29.600  65.223  36.127  0.00  0.00    +0.000 N 
ATOM      5  N   UNL     1      27.881  63.984  35.629  0.00  0.00    +0.000 NA
ATOM      6  N   UNL     1      28.105  64.864  34.593  0.00  0.00    +0.000 NA
ATOM      7  C   UNL     1      31.132  64.701  37.953  0.00  0.00    +0.000 C 
ATOM      8  C   UNL     1      29.775  64.334  40.076  0.00  0.00    +0.000 C 
ATOM      9  C   UNL     1      28.936  63.552  37.893  0.00  0.00    +0.000 C 
ATOM     10  C   UNL     1      30.710  65.728  36.903  0.00  0.00    +0.000 C 
ATOM     11  C   UNL     1      28.767  64.227  36.570  0.00  0.00    +0.000 A 
ATOM     12  C   UNL     1      29.132  65.637  34.911  0.00  0.00    +0.000 A 
BRANCH  12  16
ATOM     13  F   UNL     1      31.040  66.624  33.906  0.00  0.00    +0.000 F 
ATOM     14  F   UNL     1      29.546  67.964  34.732  0.00  0.00    +0.000 F 
ATOM     15  F   UNL     1      29.135  66.859  32.892  0.00  0.00    +0.000 F 
ATOM     16  C   UNL     1      29.701  66.760  34.122  0.00  0.00    +0.000 C 
ENDBRANCH  12  16
ENDBRANCH   1   8
BRANCH   1  17
ATOM     17  C   UNL     1      30.534  66.481  41.241  0.00  0.00    +0.000 C 
BRANCH  17  18
ATOM     18  N   UNL     1      29.141  66.787  40.866  0.00  0.00    +0.000 NA
ATOM     19  H   UNL     1      28.956  66.440  39.919  0.00  0.00    +0.000 HD
ATOM     20  H   UNL     1      29.031  67.800  40.799  0.00  0.00    +0.000 HD
ENDBRANCH  17  18
BRANCH  17  21
ATOM     21  C   UNL     1      31.490  67.462  40.505  0.00  0.00    +0.000 C 
BRANCH  21  25
ATOM     22  F   UNL     1      31.822  70.230  39.935  0.00  0.00    +0.000 F 
ATOM     23  F   UNL     1      34.183  68.390  44.483  0.00  0.00    +0.000 F 
ATOM     24  F   UNL     1      34.444  71.018  43.760  0.00  0.00    +0.000 F 
ATOM     25  C   UNL     1      32.271  68.411  41.391  0.00  0.00    +0.000 A 
ATOM     26  C   UNL     1      32.417  69.764  41.044  0.00  0.00    +0.000 A 
ATOM     27  C   UNL     1      32.870  67.957  42.574  0.00  0.00    +0.000 A 
ATOM     28  C   UNL     1      33.604  68.841  43.362  0.00  0.00    +0.000 A 
ATOM     29  C   UNL     1      33.141  70.650  41.836  0.00  0.00    +0.000 A 
ATOM     30  C   UNL     1      33.739  70.176  42.995  0.00  0.00    +0.000 A 
ENDBRANCH  21  25
ENDBRANCH  17  21
ENDBRANCH   1  17
BRANCH   1  31
ATOM     31  C   UNL     1      31.009  64.158  42.268  0.00  0.00    +0.000 C 
BRANCH  31  32
ATOM     32  C   UNL     1      32.441  63.893  42.661  0.00  0.00    +0.000 C 
ATOM     33  C   UNL     1      32.994  64.292  43.814  0.00  0.00    +0.000 C 
ENDBRANCH  31  32
ENDBRANCH   1  31
TORSDOF 8
ENDMDL
MODEL 5
REMARK VINA RESULT:      -7.1     10.864     13.475
REMARK  Name = 23647146
REMARK  8 active torsions:
REMARK  status: ('A' for Active; 'I' for Inactive)
REMARK    1  A    between atoms: N_10  and  C_14
REMARK    2  A    between atoms: C_13  and  C_14
REMARK    3  A    between atoms: C_13  and  C_16
REMARK    4  A    between atoms: C_13  and  C_19
REMARK    5  A    between atoms: C_14  and  C_20
REMARK    6  A    between atoms: C_19  and  C_24
REMARK    7  A    between atoms: C_20  and  C_23
REMARK    8  A    between atoms: C_22  and  C_25
REMARK                            x       y       z     vdW  Elec       q    Type
REMARK                         _______ _______ _______ _____ _____    ______ ____
ROOT
ATOM      1  C   UNL     1      45.705  73.386  50.159  0.00  0.00    +0.000 C 
ENDROOT
BRANCH   1   8
ATOM      2  O   UNL     1      45.815  74.245  52.411  0.00  0.00    +0.000 OA
ATOM      3  N   UNL     1      46.173  75.804  50.785  0.00  0.00    +0.000 N 
ATOM      4  N   UNL     1      47.993  77.830  50.210  0.00  0.00    +0.000 N 
ATOM      5  N   UNL     1      47.821  78.862  52.118  0.00  0.00    +0.000 NA
ATOM      6  N   UNL     1      48.807  79.472  51.374  0.00  0.00    +0.000 NA
ATOM      7  C   UNL     1      46.322  76.248  49.397  0.00  0.00    +0.000 C 
ATOM      8  C   UNL     1      45.898  74.508  51.206  0.00  0.00    +0.000 C 
ATOM      9  C   UNL     1      46.285  76.871  51.795  0.00  0.00    +0.000 C 
ATOM     10  C   UNL     1      47.709  76.854  49.181  0.00  0.00    +0.000 C 
ATOM     11  C   UNL     1      47.354  77.847  51.423  0.00  0.00    +0.000 A 
ATOM     12  C   UNL     1      48.931  78.824  50.226  0.00  0.00    +0.000 A 
BRANCH  12  16
ATOM     13  F   UNL     1      50.921  79.907  49.525  0.00  0.00    +0.000 F 
ATOM     14  F   UNL     1      49.330  79.706  48.063  0.00  0.00    +0.000 F 
ATOM     15  F   UNL     1      50.486  77.956  48.676  0.00  0.00    +0.000 F 
ATOM     16  C   UNL     1      49.900  79.093  49.132  0.00  0.00    +0.000 C 
ENDBRANCH  12  16
ENDBRANCH   1   8
BRANCH   1  17
ATOM     17  C   UNL     1      47.071  72.692  49.840  0.00  0.00    +0.000 C 
BRANCH  17  18
ATOM     18  N   UNL     1      47.329  72.680  48.388  0.00  0.00    +0.000 NA
ATOM     19  H   UNL     1      47.162  71.739  48.018  0.00  0.00    +0.000 HD
ATOM     20  H   UNL     1      48.323  72.851  48.226  0.00  0.00    +0.000 HD
ENDBRANCH  17  18
BRANCH  17  21
ATOM     21  C   UNL     1      47.147  71.238  50.386  0.00  0.00    +0.000 C 
BRANCH  21  25
ATOM     22  F   UNL     1      47.035  69.069  48.547  0.00  0.00    +0.000 F 
ATOM     23  F   UNL     1      51.942  70.281  50.573  0.00  0.00    +0.000 F 
ATOM     24  F   UNL     1      51.648  68.192  48.828  0.00  0.00    +0.000 F 
ATOM     25  C   UNL     1      48.361  70.437  49.963  0.00  0.00    +0.000 A 
ATOM     26  C   UNL     1      48.237  69.362  49.067  0.00  0.00    +0.000 A 
ATOM     27  C   UNL     1      49.633  70.747  50.462  0.00  0.00    +0.000 A 
ATOM     28  C   UNL     1      50.733  69.983  50.078  0.00  0.00    +0.000 A 
ATOM     29  C   UNL     1      49.336  68.604  48.674  0.00  0.00    +0.000 A 
ATOM     30  C   UNL     1      50.585  68.919  49.192  0.00  0.00    +0.000 A 
ENDBRANCH  21  25
ENDBRANCH  17  21
ENDBRANCH   1  17
BRANCH   1  31
ATOM     31  C   UNL     1      44.655  72.374  50.699  0.00  0.00    +0.000 C 
BRANCH  31  32
ATOM     32  C   UNL     1      43.315  72.479  50.014  0.00  0.00    +0.000 C 
ATOM     33  C   UNL     1      42.593  73.604  49.938  0.00  0.00    +0.000 C 
ENDBRANCH  31  32
ENDBRANCH   1  31
TORSDOF 8
ENDMDL
MODEL 6
REMARK VINA RESULT:      -6.5      5.098      7.469
REMARK  Name = 23647146
REMARK  8 active torsions:
REMARK  status: ('A' for Active; 'I' for Inactive)
REMARK    1  A    between atoms: N_10  and  C_14
REMARK    2  A    between atoms: C_13  and  C_14
REMARK    3  A    between atoms: C_13  and  C_16
REMARK    4  A    between atoms: C_13  and  C_19
REMARK    5  A    between atoms: C_14  and  C_20
REMARK    6  A    between atoms: C_19  and  C_24
REMARK    7  A    between atoms: C_20  and  C_23
REMARK    8  A    between atoms: C_22  and  C_25
REMARK                            x       y       z     vdW  Elec       q    Type
REMARK                         _______ _______ _______ _____ _____    ______ ____
ROOT
ATOM      1  C   UNL     1      55.582  65.416  42.661  0.00  0.00    +0.000 C 
ENDROOT
BRANCH   1   8
ATOM      2  O   UNL     1      53.376  66.392  42.702  0.00  0.00    +0.000 OA
ATOM      3  N   UNL     1      55.037  67.835  42.103  0.00  0.00    +0.000 N 
ATOM      4  N   UNL     1      55.894  70.404  42.745  0.00  0.00    +0.000 N 
ATOM      5  N   UNL     1      53.982  71.389  42.411  0.00  0.00    +0.000 NA
ATOM      6  N   UNL     1      54.873  72.313  42.911  0.00  0.00    +0.000 NA
ATOM      7  C   UNL     1      56.432  68.202  41.842  0.00  0.00    +0.000 C 
ATOM      8  C   UNL     1      54.578  66.580  42.488  0.00  0.00    +0.000 C 
ATOM      9  C   UNL     1      54.058  68.912  41.878  0.00  0.00    +0.000 C 
ATOM     10  C   UNL     1      56.864  69.333  42.775  0.00  0.00    +0.000 C 
ATOM     11  C   UNL     1      54.595  70.227  42.344  0.00  0.00    +0.000 A 
ATOM     12  C   UNL     1      56.026  71.705  43.143  0.00  0.00    +0.000 A 
BRANCH  12  16
ATOM     13  F   UNL     1      57.122  73.615  44.024  0.00  0.00    +0.000 F 
ATOM     14  F   UNL     1      58.329  72.209  42.894  0.00  0.00    +0.000 F 
ATOM     15  F   UNL     1      57.612  71.686  44.891  0.00  0.00    +0.000 F 
ATOM     16  C   UNL     1      57.260  72.291  43.728  0.00  0.00    +0.000 C 
ENDBRANCH  12  16
ENDBRANCH   1   8
BRANCH   1  17
ATOM     17  C   UNL     1      55.933  65.213  44.173  0.00  0.00    +0.000 C 
BRANCH  17  18
ATOM     18  N   UNL     1      55.025  65.993  45.033  0.00  0.00    +0.000 NA
ATOM     19  H   UNL     1      54.808  66.887  44.582  0.00  0.00    +0.000 HD
ATOM     20  H   UNL     1      55.517  66.247  45.892  0.00  0.00    +0.000 HD
ENDBRANCH  17  18
BRANCH  17  21
ATOM     21  C   UNL     1      57.404  65.594  44.504  0.00  0.00    +0.000 C 
BRANCH  21  25
ATOM     22  F   UNL     1      59.212  66.732  42.624  0.00  0.00    +0.000 F 
ATOM     23  F   UNL     1      59.733  61.395  43.568  0.00  0.00    +0.000 F 
ATOM     24  F   UNL     1      61.361  62.639  41.751  0.00  0.00    +0.000 F 
ATOM     25  C   UNL     1      58.471  64.798  43.782  0.00  0.00    +0.000 A 
ATOM     26  C   UNL     1      59.321  65.413  42.847  0.00  0.00    +0.000 A 
ATOM     27  C   UNL     1      58.629  63.427  44.026  0.00  0.00    +0.000 A 
ATOM     28  C   UNL     1      59.602  62.708  43.334  0.00  0.00    +0.000 A 
ATOM     29  C   UNL     1      60.299  64.699  42.163  0.00  0.00    +0.000 A 
ATOM     30  C   UNL     1      60.428  63.339  42.410  0.00  0.00    +0.000 A 
ENDBRANCH  21  25
ENDBRANCH  17  21
ENDBRANCH   1  17
BRANCH   1  31
ATOM     31  C   UNL     1      54.970  64.131  42.034  0.00  0.00    +0.000 C 
BRANCH  31  32
ATOM     32  C   UNL     1      55.003  62.940  42.959  0.00  0.00    +0.000 C 
ATOM     33  C   UNL     1      55.574  61.767  42.659  0.00  0.00    +0.000 C 
ENDBRANCH  31  32
ENDBRANCH   1  31
TORSDOF 8
ENDMDL
MODEL 7
REMARK VINA RESULT:      -6.4     23.653     25.711
REMARK  Name = 23647146
REMARK  8 active torsions:
REMARK  status: ('A' for Active; 'I' for Inactive)
REMARK    1  A    between atoms: N_10  and  C_14
REMARK    2  A    between atoms: C_13  and  C_14
REMARK    3  A    between atoms: C_13  and  C_16
REMARK    4  A    between atoms: C_13  and  C_19
REMARK    5  A    between atoms: C_14  and  C_20
REMARK    6  A    between atoms: C_19  and  C_24
REMARK    7  A    between atoms: C_20  and  C_23
REMARK    8  A    between atoms: C_22  and  C_25
REMARK                            x       y       z     vdW  Elec       q    Type
REMARK                         _______ _______ _______ _____ _____    ______ ____
ROOT
ATOM      1  C   UNL     1      29.891  68.803  40.513  0.00  0.00    +0.000 C 
ENDROOT
BRANCH   1   8
ATOM      2  O   UNL     1      29.975  70.989  39.495  0.00  0.00    +0.000 OA
ATOM      3  N   UNL     1      29.094  69.359  38.165  0.00  0.00    +0.000 N 
ATOM      4  N   UNL     1      29.368  68.428  35.557  0.00  0.00    +0.000 N 
ATOM      5  N   UNL     1      29.058  70.347  34.579  0.00  0.00    +0.000 NA
ATOM      6  N   UNL     1      29.382  69.411  33.621  0.00  0.00    +0.000 NA
ATOM      7  C   UNL     1      28.693  67.983  37.859  0.00  0.00    +0.000 C 
ATOM      8  C   UNL     1      29.656  69.803  39.357  0.00  0.00    +0.000 C 
ATOM      9  C   UNL     1      28.815  70.340  37.102  0.00  0.00    +0.000 C 
ATOM     10  C   UNL     1      29.453  67.470  36.637  0.00  0.00    +0.000 C 
ATOM     11  C   UNL     1      29.084  69.755  35.753  0.00  0.00    +0.000 A 
ATOM     12  C   UNL     1      29.600  68.251  34.222  0.00  0.00    +0.000 A 
BRANCH  12  16
ATOM     13  F   UNL     1      29.122  65.967  33.797  0.00  0.00    +0.000 F 
ATOM     14  F   UNL     1      31.203  66.511  34.085  0.00  0.00    +0.000 F 
ATOM     15  F   UNL     1      30.162  67.081  32.250  0.00  0.00    +0.000 F 
ATOM     16  C   UNL     1      30.023  66.971  33.596  0.00  0.00    +0.000 C 
ENDBRANCH  12  16
ENDBRANCH   1   8
BRANCH   1  17
ATOM     17  C   UNL     1      31.416  68.703  40.851  0.00  0.00    +0.000 C 
BRANCH  17  18
ATOM     18  N   UNL     1      32.233  69.295  39.776  0.00  0.00    +0.000 NA
ATOM     19  H   UNL     1      32.241  68.667  38.967  0.00  0.00    +0.000 HD
ATOM     20  H   UNL     1      33.207  69.337  40.084  0.00  0.00    +0.000 HD
ENDBRANCH  17  18
BRANCH  17  21
ATOM     21  C   UNL     1      31.881  67.240  41.102  0.00  0.00    +0.000 C 
BRANCH  21  25
ATOM     22  F   UNL     1      29.593  65.931  42.173  0.00  0.00    +0.000 F 
ATOM     23  F   UNL     1      31.164  64.383  37.195  0.00  0.00    +0.000 F 
ATOM     24  F   UNL     1      29.011  63.191  38.394  0.00  0.00    +0.000 F 
ATOM     25  C   UNL     1      31.109  66.167  40.363  0.00  0.00    +0.000 A 
ATOM     26  C   UNL     1      29.999  65.541  40.955  0.00  0.00    +0.000 A 
ATOM     27  C   UNL     1      31.490  65.770  39.075  0.00  0.00    +0.000 A 
ATOM     28  C   UNL     1      30.780  64.763  38.421  0.00  0.00    +0.000 A 
ATOM     29  C   UNL     1      29.283  64.544  40.300  0.00  0.00    +0.000 A 
ATOM     30  C   UNL     1      29.687  64.156  39.031  0.00  0.00    +0.000 A 
ENDBRANCH  21  25
ENDBRANCH  17  21
ENDBRANCH   1  17
BRANCH   1  31
ATOM     31  C   UNL     1      29.056  69.257  41.745  0.00  0.00    +0.000 C 
BRANCH  31  32
ATOM     32  C   UNL     1      27.576  69.010  41.587  0.00  0.00    +0.000 C 
ATOM     33  C   UNL     1      27.029  67.805  41.382  0.00  0.00    +0.000 C 
ENDBRANCH  31  32
ENDBRANCH   1  31
TORSDOF 8
ENDMDL
MODEL 8
REMARK VINA RESULT:      -6.4     22.950     25.691
REMARK  Name = 23647146
REMARK  8 active torsions:
REMARK  status: ('A' for Active; 'I' for Inactive)
REMARK    1  A    between atoms: N_10  and  C_14
REMARK    2  A    between atoms: C_13  and  C_14
REMARK    3  A    between atoms: C_13  and  C_16
REMARK    4  A    between atoms: C_13  and  C_19
REMARK    5  A    between atoms: C_14  and  C_20
REMARK    6  A    between atoms: C_19  and  C_24
REMARK    7  A    between atoms: C_20  and  C_23
REMARK    8  A    between atoms: C_22  and  C_25
REMARK                            x       y       z     vdW  Elec       q    Type
REMARK                         _______ _______ _______ _____ _____    ______ ____
ROOT
ATOM      1  C   UNL     1      30.266  68.894  41.443  0.00  0.00    +0.000 C 
ENDROOT
BRANCH   1   8
ATOM      2  O   UNL     1      29.779  70.738  39.965  0.00  0.00    +0.000 OA
ATOM      3  N   UNL     1      28.745  68.782  39.410  0.00  0.00    +0.000 N 
ATOM      4  N   UNL     1      28.340  67.212  37.148  0.00  0.00    +0.000 N 
ATOM      5  N   UNL     1      27.524  68.794  35.896  0.00  0.00    +0.000 NA
ATOM      6  N   UNL     1      27.657  67.654  35.134  0.00  0.00    +0.000 NA
ATOM      7  C   UNL     1      28.439  67.360  39.582  0.00  0.00    +0.000 C 
ATOM      8  C   UNL     1      29.578  69.546  40.220  0.00  0.00    +0.000 C 
ATOM      9  C   UNL     1      28.046  69.439  38.291  0.00  0.00    +0.000 C 
ATOM     10  C   UNL     1      28.857  66.575  38.338  0.00  0.00    +0.000 C 
ATOM     11  C   UNL     1      27.969  68.532  37.105  0.00  0.00    +0.000 A 
ATOM     12  C   UNL     1      28.183  66.701  35.890  0.00  0.00    +0.000 A 
BRANCH  12  16
ATOM     13  F   UNL     1      28.456  65.127  34.137  0.00  0.00    +0.000 F 
ATOM     14  F   UNL     1      27.756  64.375  36.049  0.00  0.00    +0.000 F 
ATOM     15  F   UNL     1      29.832  65.015  35.812  0.00  0.00    +0.000 F 
ATOM     16  C   UNL     1      28.551  65.320  35.483  0.00  0.00    +0.000 C 
ENDBRANCH  12  16
ENDBRANCH   1   8
BRANCH   1  17
ATOM     17  C   UNL     1      31.819  69.067  41.357  0.00  0.00    +0.000 C 
BRANCH  17  18
ATOM     18  N   UNL     1      32.243  69.327  39.968  0.00  0.00    +0.000 NA
ATOM     19  H   UNL     1      31.624  68.829  39.322  0.00  0.00    +0.000 HD
ATOM     20  H   UNL     1      33.165  68.913  39.820  0.00  0.00    +0.000 HD
ENDBRANCH  17  18
BRANCH  17  21
ATOM     21  C   UNL     1      32.592  67.834  41.905  0.00  0.00    +0.000 C 
BRANCH  21  25
ATOM     22  F   UNL     1      32.038  66.190  39.650  0.00  0.00    +0.000 F 
ATOM     23  F   UNL     1      30.092  64.476  44.437  0.00  0.00    +0.000 F 
ATOM     24  F   UNL     1      29.609  63.038  42.158  0.00  0.00    +0.000 F 
ATOM     25  C   UNL     1      31.804  66.543  41.985  0.00  0.00    +0.000 A 
ATOM     26  C   UNL     1      31.545  65.785  40.830  0.00  0.00    +0.000 A 
ATOM     27  C   UNL     1      31.311  66.079  43.212  0.00  0.00    +0.000 A 
ATOM     28  C   UNL     1      30.569  64.901  43.260  0.00  0.00    +0.000 A 
ATOM     29  C   UNL     1      30.813  64.603  40.878  0.00  0.00    +0.000 A 
ATOM     30  C   UNL     1      30.321  64.170  42.102  0.00  0.00    +0.000 A 
ENDBRANCH  21  25
ENDBRANCH  17  21
ENDBRANCH   1  17
BRANCH   1  31
ATOM     31  C   UNL     1      29.685  69.527  42.739  0.00  0.00    +0.000 C 
BRANCH  31  32
ATOM     32  C   UNL     1      28.878  68.560  43.568  0.00  0.00    +0.000 C 
ATOM     33  C   UNL     1      27.950  67.732  43.071  0.00  0.00    +0.000 C 
ENDBRANCH  31  32
ENDBRANCH   1  31
TORSDOF 8
ENDMDL
MODEL 9
REMARK VINA RESULT:      -6.3     23.365     25.760
REMARK  Name = 23647146
REMARK  8 active torsions:
REMARK  status: ('A' for Active; 'I' for Inactive)
REMARK    1  A    between atoms: N_10  and  C_14
REMARK    2  A    between atoms: C_13  and  C_14
REMARK    3  A    between atoms: C_13  and  C_16
REMARK    4  A    between atoms: C_13  and  C_19
REMARK    5  A    between atoms: C_14  and  C_20
REMARK    6  A    between atoms: C_19  and  C_24
REMARK    7  A    between atoms: C_20  and  C_23
REMARK    8  A    between atoms: C_22  and  C_25
REMARK                            x       y       z     vdW  Elec       q    Type
REMARK                         _______ _______ _______ _____ _____    ______ ____
ROOT
ATOM      1  C   UNL     1      30.110  69.390  41.158  0.00  0.00    +0.000 C 
ENDROOT
BRANCH   1   8
ATOM      2  O   UNL     1      29.835  70.441  39.004  0.00  0.00    +0.000 OA
ATOM      3  N   UNL     1      28.915  68.360  39.165  0.00  0.00    +0.000 N 
ATOM      4  N   UNL     1      28.872  65.986  37.714  0.00  0.00    +0.000 N 
ATOM      5  N   UNL     1      28.240  66.866  35.826  0.00  0.00    +0.000 NA
ATOM      6  N   UNL     1      28.498  65.528  35.624  0.00  0.00    +0.000 NA
ATOM      7  C   UNL     1      28.601  67.111  39.862  0.00  0.00    +0.000 C 
ATOM      8  C   UNL     1      29.609  69.443  39.695  0.00  0.00    +0.000 C 
ATOM      9  C   UNL     1      28.388  68.458  37.793  0.00  0.00    +0.000 C 
ATOM     10  C   UNL     1      29.209  65.922  39.118  0.00  0.00    +0.000 C 
ATOM     11  C   UNL     1      28.500  67.146  37.085  0.00  0.00    +0.000 A 
ATOM     12  C   UNL     1      28.912  65.001  36.767  0.00  0.00    +0.000 A 
BRANCH  12  16
ATOM     13  F   UNL     1      28.607  62.984  37.975  0.00  0.00    +0.000 F 
ATOM     14  F   UNL     1      30.639  63.523  37.437  0.00  0.00    +0.000 F 
ATOM     15  F   UNL     1      29.244  62.829  35.905  0.00  0.00    +0.000 F 
ATOM     16  C   UNL     1      29.350  63.603  37.015  0.00  0.00    +0.000 C 
ENDBRANCH  12  16
ENDBRANCH   1   8
BRANCH   1  17
ATOM     17  C   UNL     1      31.665  69.560  41.213  0.00  0.00    +0.000 C 
BRANCH  17  18
ATOM     18  N   UNL     1      32.272  69.270  39.901  0.00  0.00    +0.000 NA
ATOM     19  H   UNL     1      32.261  68.259  39.733  0.00  0.00    +0.000 HD
ATOM     20  H   UNL     1      33.263  69.519  39.932  0.00  0.00    +0.000 HD
ENDBRANCH  17  18
BRANCH  17  21
ATOM     21  C   UNL     1      32.329  68.661  42.294  0.00  0.00    +0.000 C 
BRANCH  21  25
ATOM     22  F   UNL     1      30.622  68.619  44.570  0.00  0.00    +0.000 F 
ATOM     23  F   UNL     1      30.951  64.004  41.699  0.00  0.00    +0.000 F 
ATOM     24  F   UNL     1      29.391  64.121  43.946  0.00  0.00    +0.000 F 
ATOM     25  C   UNL     1      31.534  67.444  42.721  0.00  0.00    +0.000 A 
ATOM     26  C   UNL     1      30.724  67.480  43.868  0.00  0.00    +0.000 A 
ATOM     27  C   UNL     1      31.595  66.255  41.983  0.00  0.00    +0.000 A 
ATOM     28  C   UNL     1      30.873  65.140  42.406  0.00  0.00    +0.000 A 
ATOM     29  C   UNL     1      29.996  66.371  44.286  0.00  0.00    +0.000 A 
ATOM     30  C   UNL     1      30.082  65.198  43.549  0.00  0.00    +0.000 A 
ENDBRANCH  21  25
ENDBRANCH  17  21
ENDBRANCH   1  17
BRANCH   1  31
ATOM     31  C   UNL     1      29.380  70.493  41.976  0.00  0.00    +0.000 C 
BRANCH  31  32
ATOM     32  C   UNL     1      27.948  70.147  42.302  0.00  0.00    +0.000 C 
ATOM     33  C   UNL     1      27.558  68.992  42.857  0.00  0.00    +0.000 C 
ENDBRANCH  31  32
ENDBRANCH   1  31
TORSDOF 8
ENDMDL
