MODEL 1
REMARK VINA RESULT:      -9.8      0.000      0.000
REMARK  Name = 24776703
REMARK  8 active torsions:
REMARK  status: ('A' for Active; 'I' for Inactive)
REMARK    1  A    between atoms: N_13  and  C_22
REMARK    2  A    between atoms: C_14  and  C_18
REMARK    3  A    between atoms: C_18  and  C_23
REMARK    4  A    between atoms: C_19  and  C_20
REMARK    5  A    between atoms: C_20  and  C_22
REMARK    6  A    between atoms: C_21  and  C_25
REMARK    7  A    between atoms: C_22  and  C_24
REMARK    8  A    between atoms: C_24  and  C_28
REMARK                            x       y       z     vdW  Elec       q    Type
REMARK                         _______ _______ _______ _____ _____    ______ ____
ROOT
ATOM      1  O   UNL     1      36.676  50.526  39.960  0.00  0.00    +0.000 OA
ATOM      2  N   UNL     1      38.746  51.268  39.316  0.00  0.00    +0.000 N 
ATOM      3  N   UNL     1      40.658  52.135  37.465  0.00  0.00    +0.000 N 
ATOM      4  N   UNL     1      39.852  51.088  35.741  0.00  0.00    +0.000 NA
ATOM      5  N   UNL     1      40.926  51.848  35.331  0.00  0.00    +0.000 NA
ATOM      6  C   UNL     1      38.509  50.844  37.896  0.00  0.00    +0.000 C 
ATOM      7  C   UNL     1      40.148  51.430  39.721  0.00  0.00    +0.000 C 
ATOM      8  C   UNL     1      39.648  51.324  37.019  0.00  0.00    +0.000 A 
ATOM      9  C   UNL     1      40.861  52.451  38.855  0.00  0.00    +0.000 C 
ATOM     10  C   UNL     1      37.753  51.032  40.263  0.00  0.00    +0.000 C 
ATOM     11  C   UNL     1      41.390  52.514  36.375  0.00  0.00    +0.000 A 
ENDROOT
BRANCH  11  15
ATOM     12  F   UNL     1      43.281  53.437  35.286  0.00  0.00    +0.000 F 
ATOM     13  F   UNL     1      43.342  53.312  37.450  0.00  0.00    +0.000 F 
ATOM     14  F   UNL     1      42.053  54.781  36.470  0.00  0.00    +0.000 F 
ATOM     15  C   UNL     1      42.500  53.501  36.403  0.00  0.00    +0.000 C 
ENDBRANCH  11  15
BRANCH   6  16
ATOM     16  C   UNL     1      37.147  51.275  37.261  0.00  0.00    +0.000 C 
BRANCH  16  18
ATOM     17  F   UNL     1      34.330  51.420  36.942  0.00  0.00    +0.000 F 
ATOM     18  C   UNL     1      36.310  50.129  36.738  0.00  0.00    +0.000 A 
ATOM     19  C   UNL     1      34.920  50.251  36.661  0.00  0.00    +0.000 A 
ATOM     20  C   UNL     1      36.893  48.916  36.353  0.00  0.00    +0.000 A 
ATOM     21  C   UNL     1      34.118  49.177  36.298  0.00  0.00    +0.000 A 
ATOM     22  C   UNL     1      36.093  47.833  35.980  0.00  0.00    +0.000 A 
ATOM     23  C   UNL     1      34.705  47.957  35.973  0.00  0.00    +0.000 A 
ENDBRANCH  16  18
ENDBRANCH   6  16
BRANCH  10  24
ATOM     24  C   UNL     1      38.034  51.487  41.690  0.00  0.00    +0.000 C 
BRANCH  24  25
ATOM     25  C   UNL     1      36.924  51.121  42.684  0.00  0.00    +0.000 C 
BRANCH  25  26
ATOM     26  N   UNL     1      35.760  51.987  42.390  0.00  0.00    +0.000 NA
ATOM     27  H   UNL     1      35.504  52.511  43.229  0.00  0.00    +0.000 HD
ATOM     28  H   UNL     1      34.948  51.406  42.180  0.00  0.00    +0.000 HD
ENDBRANCH  25  26
BRANCH  25  29
ATOM     29  C   UNL     1      37.381  51.312  44.151  0.00  0.00    +0.000 C 
BRANCH  29  33
ATOM     30  F   UNL     1      38.603  48.734  44.363  0.00  0.00    +0.000 F 
ATOM     31  F   UNL     1      34.308  49.699  47.573  0.00  0.00    +0.000 F 
ATOM     32  F   UNL     1      35.539  47.251  47.606  0.00  0.00    +0.000 F 
ATOM     33  C   UNL     1      36.902  50.230  45.087  0.00  0.00    +0.000 A 
ATOM     34  C   UNL     1      37.540  48.980  45.140  0.00  0.00    +0.000 A 
ATOM     35  C   UNL     1      35.809  50.469  45.931  0.00  0.00    +0.000 A 
ATOM     36  C   UNL     1      35.360  49.462  46.778  0.00  0.00    +0.000 A 
ATOM     37  C   UNL     1      37.085  47.971  45.984  0.00  0.00    +0.000 A 
ATOM     38  C   UNL     1      35.988  48.221  46.797  0.00  0.00    +0.000 A 
ENDBRANCH  29  33
ENDBRANCH  25  29
ENDBRANCH  24  25
ENDBRANCH  10  24
TORSDOF 8
ENDMDL
MODEL 2
REMARK VINA RESULT:      -9.3      1.537      2.444
REMARK  Name = 24776703
REMARK  8 active torsions:
REMARK  status: ('A' for Active; 'I' for Inactive)
REMARK    1  A    between atoms: N_13  and  C_22
REMARK    2  A    between atoms: C_14  and  C_18
REMARK    3  A    between atoms: C_18  and  C_23
REMARK    4  A    between atoms: C_19  and  C_20
REMARK    5  A    between atoms: C_20  and  C_22
REMARK    6  A    between atoms: C_21  and  C_25
REMARK    7  A    between atoms: C_22  and  C_24
REMARK    8  A    between atoms: C_24  and  C_28
REMARK                            x       y       z     vdW  Elec       q    Type
REMARK                         _______ _______ _______ _____ _____    ______ ____
ROOT
ATOM      1  O   UNL     1      36.592  50.514  39.926  0.00  0.00    +0.000 OA
ATOM      2  N   UNL     1      38.679  51.253  39.333  0.00  0.00    +0.000 N 
ATOM      3  N   UNL     1      40.640  52.106  37.528  0.00  0.00    +0.000 N 
ATOM      4  N   UNL     1      39.883  51.045  35.791  0.00  0.00    +0.000 NA
ATOM      5  N   UNL     1      40.967  51.803  35.405  0.00  0.00    +0.000 NA
ATOM      6  C   UNL     1      38.481  50.817  37.910  0.00  0.00    +0.000 C 
ATOM      7  C   UNL     1      40.068  51.420  39.774  0.00  0.00    +0.000 C 
ATOM      8  C   UNL     1      39.644  51.291  37.061  0.00  0.00    +0.000 A 
ATOM      9  C   UNL     1      40.804  52.435  38.921  0.00  0.00    +0.000 C 
ATOM     10  C   UNL     1      37.660  51.024  40.254  0.00  0.00    +0.000 C 
ATOM     11  C   UNL     1      41.401  52.478  36.456  0.00  0.00    +0.000 A 
ENDROOT
BRANCH  11  15
ATOM     12  F   UNL     1      42.062  54.745  36.659  0.00  0.00    +0.000 F 
ATOM     13  F   UNL     1      43.256  53.472  35.372  0.00  0.00    +0.000 F 
ATOM     14  F   UNL     1      43.355  53.241  37.544  0.00  0.00    +0.000 F 
ATOM     15  C   UNL     1      42.510  53.466  36.506  0.00  0.00    +0.000 C 
ENDBRANCH  11  15
BRANCH   6  16
ATOM     16  C   UNL     1      37.137  51.241  37.235  0.00  0.00    +0.000 C 
BRANCH  16  18
ATOM     17  F   UNL     1      34.307  51.328  37.021  0.00  0.00    +0.000 F 
ATOM     18  C   UNL     1      36.307  50.089  36.713  0.00  0.00    +0.000 A 
ATOM     19  C   UNL     1      34.913  50.180  36.690  0.00  0.00    +0.000 A 
ATOM     20  C   UNL     1      36.903  48.899  36.277  0.00  0.00    +0.000 A 
ATOM     21  C   UNL     1      34.123  49.096  36.329  0.00  0.00    +0.000 A 
ATOM     22  C   UNL     1      36.115  47.807  35.906  0.00  0.00    +0.000 A 
ATOM     23  C   UNL     1      34.725  47.898  35.952  0.00  0.00    +0.000 A 
ENDBRANCH  16  18
ENDBRANCH   6  16
BRANCH  10  24
ATOM     24  C   UNL     1      37.901  51.490  41.684  0.00  0.00    +0.000 C 
BRANCH  24  25
ATOM     25  C   UNL     1      37.546  50.438  42.744  0.00  0.00    +0.000 C 
BRANCH  25  26
ATOM     26  N   UNL     1      36.071  50.398  42.854  0.00  0.00    +0.000 NA
ATOM     27  H   UNL     1      35.658  50.997  42.137  0.00  0.00    +0.000 HD
ATOM     28  H   UNL     1      35.785  50.811  43.743  0.00  0.00    +0.000 HD
ENDBRANCH  25  26
BRANCH  25  29
ATOM     29  C   UNL     1      38.180  50.771  44.117  0.00  0.00    +0.000 C 
BRANCH  29  33
ATOM     30  F   UNL     1      38.065  50.170  46.913  0.00  0.00    +0.000 F 
ATOM     31  F   UNL     1      41.074  46.862  43.800  0.00  0.00    +0.000 F 
ATOM     32  F   UNL     1      40.927  46.462  46.508  0.00  0.00    +0.000 F 
ATOM     33  C   UNL     1      38.898  49.609  44.757  0.00  0.00    +0.000 A 
ATOM     34  C   UNL     1      38.810  49.371  46.138  0.00  0.00    +0.000 A 
ATOM     35  C   UNL     1      39.663  48.739  43.968  0.00  0.00    +0.000 A 
ATOM     36  C   UNL     1      40.338  47.681  44.565  0.00  0.00    +0.000 A 
ATOM     37  C   UNL     1      39.492  48.314  46.735  0.00  0.00    +0.000 A 
ATOM     38  C   UNL     1      40.260  47.476  45.939  0.00  0.00    +0.000 A 
ENDBRANCH  29  33
ENDBRANCH  25  29
ENDBRANCH  24  25
ENDBRANCH  10  24
TORSDOF 8
ENDMDL
MODEL 3
REMARK VINA RESULT:      -8.9     17.749     18.920
REMARK  Name = 24776703
REMARK  8 active torsions:
REMARK  status: ('A' for Active; 'I' for Inactive)
REMARK    1  A    between atoms: N_13  and  C_22
REMARK    2  A    between atoms: C_14  and  C_18
REMARK    3  A    between atoms: C_18  and  C_23
REMARK    4  A    between atoms: C_19  and  C_20
REMARK    5  A    between atoms: C_20  and  C_22
REMARK    6  A    between atoms: C_21  and  C_25
REMARK    7  A    between atoms: C_22  and  C_24
REMARK    8  A    between atoms: C_24  and  C_28
REMARK                            x       y       z     vdW  Elec       q    Type
REMARK                         _______ _______ _______ _____ _____    ______ ____
ROOT
ATOM      1  O   UNL     1      28.352  63.968  35.914  0.00  0.00    +0.000 OA
ATOM      2  N   UNL     1      29.887  65.598  35.420  0.00  0.00    +0.000 N 
ATOM      3  N   UNL     1      30.709  68.066  34.391  0.00  0.00    +0.000 N 
ATOM      4  N   UNL     1      29.146  68.266  32.896  0.00  0.00    +0.000 NA
ATOM      5  N   UNL     1      29.917  69.407  32.880  0.00  0.00    +0.000 NA
ATOM      6  C   UNL     1      28.987  66.195  34.377  0.00  0.00    +0.000 C 
ATOM      7  C   UNL     1      31.315  65.911  35.303  0.00  0.00    +0.000 C 
ATOM      8  C   UNL     1      29.584  67.490  33.864  0.00  0.00    +0.000 A 
ATOM      9  C   UNL     1      31.561  67.407  35.347  0.00  0.00    +0.000 C 
ATOM     10  C   UNL     1      29.459  64.465  36.108  0.00  0.00    +0.000 C 
ATOM     11  C   UNL     1      30.844  69.299  33.818  0.00  0.00    +0.000 A 
ENDROOT
BRANCH  11  15
ATOM     12  F   UNL     1      33.138  69.863  34.011  0.00  0.00    +0.000 F 
ATOM     13  F   UNL     1      31.790  70.645  35.519  0.00  0.00    +0.000 F 
ATOM     14  F   UNL     1      31.756  71.455  33.489  0.00  0.00    +0.000 F 
ATOM     15  C   UNL     1      31.864  70.308  34.207  0.00  0.00    +0.000 C 
ENDBRANCH  11  15
BRANCH   6  16
ATOM     16  C   UNL     1      27.502  66.438  34.799  0.00  0.00    +0.000 C 
BRANCH  16  18
ATOM     17  F   UNL     1      25.607  68.402  34.015  0.00  0.00    +0.000 F 
ATOM     18  C   UNL     1      27.269  67.722  35.565  0.00  0.00    +0.000 A 
ATOM     19  C   UNL     1      26.361  68.671  35.088  0.00  0.00    +0.000 A 
ATOM     20  C   UNL     1      27.976  68.008  36.739  0.00  0.00    +0.000 A 
ATOM     21  C   UNL     1      26.216  69.907  35.705  0.00  0.00    +0.000 A 
ATOM     22  C   UNL     1      27.829  69.247  37.369  0.00  0.00    +0.000 A 
ATOM     23  C   UNL     1      26.966  70.204  36.840  0.00  0.00    +0.000 A 
ENDBRANCH  16  18
ENDBRANCH   6  16
BRANCH  10  24
ATOM     24  C   UNL     1      30.401  63.898  37.163  0.00  0.00    +0.000 C 
BRANCH  24  25
ATOM     25  C   UNL     1      30.253  64.560  38.540  0.00  0.00    +0.000 C 
BRANCH  25  26
ATOM     26  N   UNL     1      31.561  64.461  39.224  0.00  0.00    +0.000 NA
ATOM     27  H   UNL     1      32.083  63.665  38.852  0.00  0.00    +0.000 HD
ATOM     28  H   UNL     1      31.414  64.245  40.211  0.00  0.00    +0.000 HD
ENDBRANCH  25  26
BRANCH  25  29
ATOM     29  C   UNL     1      29.149  63.879  39.388  0.00  0.00    +0.000 C 
BRANCH  29  33
ATOM     30  F   UNL     1      27.990  66.449  39.873  0.00  0.00    +0.000 F 
ATOM     31  F   UNL     1      29.634  63.621  44.230  0.00  0.00    +0.000 F 
ATOM     32  F   UNL     1      28.574  66.131  44.528  0.00  0.00    +0.000 F 
ATOM     33  C   UNL     1      28.977  64.476  40.762  0.00  0.00    +0.000 A 
ATOM     34  C   UNL     1      28.408  65.748  40.935  0.00  0.00    +0.000 A 
ATOM     35  C   UNL     1      29.380  63.755  41.894  0.00  0.00    +0.000 A 
ATOM     36  C   UNL     1      29.236  64.317  43.157  0.00  0.00    +0.000 A 
ATOM     37  C   UNL     1      28.271  66.313  42.200  0.00  0.00    +0.000 A 
ATOM     38  C   UNL     1      28.695  65.590  43.307  0.00  0.00    +0.000 A 
ENDBRANCH  29  33
ENDBRANCH  25  29
ENDBRANCH  24  25
ENDBRANCH  10  24
TORSDOF 8
ENDMDL
MODEL 4
REMARK VINA RESULT:      -8.8     10.530     13.466
REMARK  Name = 24776703
REMARK  8 active torsions:
REMARK  status: ('A' for Active; 'I' for Inactive)
REMARK    1  A    between atoms: N_13  and  C_22
REMARK    2  A    between atoms: C_14  and  C_18
REMARK    3  A    between atoms: C_18  and  C_23
REMARK    4  A    between atoms: C_19  and  C_20
REMARK    5  A    between atoms: C_20  and  C_22
REMARK    6  A    between atoms: C_21  and  C_25
REMARK    7  A    between atoms: C_22  and  C_24
REMARK    8  A    between atoms: C_24  and  C_28
REMARK                            x       y       z     vdW  Elec       q    Type
REMARK                         _______ _______ _______ _____ _____    ______ ____
ROOT
ATOM      1  O   UNL     1      49.009  51.431  39.181  0.00  0.00    +0.000 OA
ATOM      2  N   UNL     1      50.429  50.065  38.010  0.00  0.00    +0.000 N 
ATOM      3  N   UNL     1      51.507  48.935  35.689  0.00  0.00    +0.000 N 
ATOM      4  N   UNL     1      49.735  49.134  34.448  0.00  0.00    +0.000 NA
ATOM      5  N   UNL     1      50.756  48.622  33.678  0.00  0.00    +0.000 NA
ATOM      6  C   UNL     1      49.536  50.091  36.804  0.00  0.00    +0.000 C 
ATOM      7  C   UNL     1      51.365  48.939  38.102  0.00  0.00    +0.000 C 
ATOM      8  C   UNL     1      50.217  49.392  35.645  0.00  0.00    +0.000 A 
ATOM      9  C   UNL     1      52.287  48.884  36.899  0.00  0.00    +0.000 C 
ATOM     10  C   UNL     1      50.039  50.764  39.151  0.00  0.00    +0.000 C 
ATOM     11  C   UNL     1      51.844  48.539  34.425  0.00  0.00    +0.000 A 
ENDROOT
BRANCH  11  15
ATOM     12  F   UNL     1      53.661  47.054  34.754  0.00  0.00    +0.000 F 
ATOM     13  F   UNL     1      54.130  49.079  34.137  0.00  0.00    +0.000 F 
ATOM     14  F   UNL     1      53.234  47.679  32.718  0.00  0.00    +0.000 F 
ATOM     15  C   UNL     1      53.201  48.099  34.009  0.00  0.00    +0.000 C 
ENDBRANCH  11  15
BRANCH   6  16
ATOM     16  C   UNL     1      49.035  51.498  36.342  0.00  0.00    +0.000 C 
BRANCH  16  18
ATOM     17  F   UNL     1      48.205  52.323  33.755  0.00  0.00    +0.000 F 
ATOM     18  C   UNL     1      47.587  51.535  35.906  0.00  0.00    +0.000 A 
ATOM     19  C   UNL     1      47.246  52.008  34.636  0.00  0.00    +0.000 A 
ATOM     20  C   UNL     1      46.556  51.136  36.765  0.00  0.00    +0.000 A 
ATOM     21  C   UNL     1      45.920  52.166  34.254  0.00  0.00    +0.000 A 
ATOM     22  C   UNL     1      45.220  51.285  36.385  0.00  0.00    +0.000 A 
ATOM     23  C   UNL     1      44.902  51.819  35.138  0.00  0.00    +0.000 A 
ENDBRANCH  16  18
ENDBRANCH   6  16
BRANCH  10  24
ATOM     24  C   UNL     1      50.981  50.716  40.348  0.00  0.00    +0.000 C 
BRANCH  24  25
ATOM     25  C   UNL     1      50.444  49.885  41.521  0.00  0.00    +0.000 C 
BRANCH  25  26
ATOM     26  N   UNL     1      49.089  49.417  41.152  0.00  0.00    +0.000 NA
ATOM     27  H   UNL     1      48.871  49.718  40.200  0.00  0.00    +0.000 HD
ATOM     28  H   UNL     1      48.397  49.880  41.742  0.00  0.00    +0.000 HD
ENDBRANCH  25  26
BRANCH  25  29
ATOM     29  C   UNL     1      50.391  50.709  42.831  0.00  0.00    +0.000 C 
BRANCH  29  33
ATOM     30  F   UNL     1      50.884  48.701  44.809  0.00  0.00    +0.000 F 
ATOM     31  F   UNL     1      54.793  52.417  44.038  0.00  0.00    +0.000 F 
ATOM     32  F   UNL     1      55.085  50.475  45.950  0.00  0.00    +0.000 F 
ATOM     33  C   UNL     1      51.652  50.633  43.654  0.00  0.00    +0.000 A 
ATOM     34  C   UNL     1      51.833  49.627  44.617  0.00  0.00    +0.000 A 
ATOM     35  C   UNL     1      52.674  51.571  43.456  0.00  0.00    +0.000 A 
ATOM     36  C   UNL     1      53.828  51.508  44.230  0.00  0.00    +0.000 A 
ATOM     37  C   UNL     1      52.985  49.568  45.395  0.00  0.00    +0.000 A 
ATOM     38  C   UNL     1      53.977  50.519  45.198  0.00  0.00    +0.000 A 
ENDBRANCH  29  33
ENDBRANCH  25  29
ENDBRANCH  24  25
ENDBRANCH  10  24
TORSDOF 8
ENDMDL
MODEL 5
REMARK VINA RESULT:      -8.7     10.898     13.981
REMARK  Name = 24776703
REMARK  8 active torsions:
REMARK  status: ('A' for Active; 'I' for Inactive)
REMARK    1  A    between atoms: N_13  and  C_22
REMARK    2  A    between atoms: C_14  and  C_18
REMARK    3  A    between atoms: C_18  and  C_23
REMARK    4  A    between atoms: C_19  and  C_20
REMARK    5  A    between atoms: C_20  and  C_22
REMARK    6  A    between atoms: C_21  and  C_25
REMARK    7  A    between atoms: C_22  and  C_24
REMARK    8  A    between atoms: C_24  and  C_28
REMARK                            x       y       z     vdW  Elec       q    Type
REMARK                         _______ _______ _______ _____ _____    ______ ____
ROOT
ATOM      1  O   UNL     1      49.191  51.188  39.358  0.00  0.00    +0.000 OA
ATOM      2  N   UNL     1      50.558  49.838  38.108  0.00  0.00    +0.000 N 
ATOM      3  N   UNL     1      51.586  48.795  35.723  0.00  0.00    +0.000 N 
ATOM      4  N   UNL     1      49.815  49.117  34.507  0.00  0.00    +0.000 NA
ATOM      5  N   UNL     1      50.814  48.612  33.704  0.00  0.00    +0.000 NA
ATOM      6  C   UNL     1      49.660  49.956  36.911  0.00  0.00    +0.000 C 
ATOM      7  C   UNL     1      51.456  48.678  38.134  0.00  0.00    +0.000 C 
ATOM      8  C   UNL     1      50.311  49.296  35.712  0.00  0.00    +0.000 A 
ATOM      9  C   UNL     1      52.370  48.655  36.923  0.00  0.00    +0.000 C 
ATOM     10  C   UNL     1      50.198  50.489  39.285  0.00  0.00    +0.000 C 
ATOM     11  C   UNL     1      51.903  48.454  34.438  0.00  0.00    +0.000 A 
ENDROOT
BRANCH  11  15
ATOM     12  F   UNL     1      54.200  48.951  34.139  0.00  0.00    +0.000 F 
ATOM     13  F   UNL     1      53.264  47.650  32.677  0.00  0.00    +0.000 F 
ATOM     14  F   UNL     1      53.679  46.917  34.694  0.00  0.00    +0.000 F 
ATOM     15  C   UNL     1      53.242  47.992  33.990  0.00  0.00    +0.000 C 
ENDBRANCH  11  15
BRANCH   6  16
ATOM     16  C   UNL     1      49.204  51.401  36.525  0.00  0.00    +0.000 C 
BRANCH  16  18
ATOM     17  F   UNL     1      48.499  52.299  33.925  0.00  0.00    +0.000 F 
ATOM     18  C   UNL     1      47.775  51.498  36.038  0.00  0.00    +0.000 A 
ATOM     19  C   UNL     1      47.499  52.004  34.765  0.00  0.00    +0.000 A 
ATOM     20  C   UNL     1      46.700  51.122  36.852  0.00  0.00    +0.000 A 
ATOM     21  C   UNL     1      46.194  52.216  34.339  0.00  0.00    +0.000 A 
ATOM     22  C   UNL     1      45.385  51.326  36.427  0.00  0.00    +0.000 A 
ATOM     23  C   UNL     1      45.132  51.892  35.179  0.00  0.00    +0.000 A 
ENDBRANCH  16  18
ENDBRANCH   6  16
BRANCH  10  24
ATOM     24  C   UNL     1      51.144  50.348  40.472  0.00  0.00    +0.000 C 
BRANCH  24  25
ATOM     25  C   UNL     1      52.337  51.312  40.426  0.00  0.00    +0.000 C 
BRANCH  25  26
ATOM     26  N   UNL     1      53.564  50.496  40.291  0.00  0.00    +0.000 NA
ATOM     27  H   UNL     1      53.334  49.603  39.851  0.00  0.00    +0.000 HD
ATOM     28  H   UNL     1      53.915  50.254  41.218  0.00  0.00    +0.000 HD
ENDBRANCH  25  26
BRANCH  25  29
ATOM     29  C   UNL     1      52.413  52.191  41.700  0.00  0.00    +0.000 C 
BRANCH  29  33
ATOM     30  F   UNL     1      55.180  52.413  42.394  0.00  0.00    +0.000 F 
ATOM     31  F   UNL     1      52.075  49.291  45.602  0.00  0.00    +0.000 F 
ATOM     32  F   UNL     1      54.760  49.542  46.093  0.00  0.00    +0.000 F 
ATOM     33  C   UNL     1      53.040  51.499  42.884  0.00  0.00    +0.000 A 
ATOM     34  C   UNL     1      54.408  51.640  43.169  0.00  0.00    +0.000 A 
ATOM     35  C   UNL     1      52.252  50.706  43.729  0.00  0.00    +0.000 A 
ATOM     36  C   UNL     1      52.838  50.055  44.808  0.00  0.00    +0.000 A 
ATOM     37  C   UNL     1      54.995  50.983  44.246  0.00  0.00    +0.000 A 
ATOM     38  C   UNL     1      54.200  50.186  45.058  0.00  0.00    +0.000 A 
ENDBRANCH  29  33
ENDBRANCH  25  29
ENDBRANCH  24  25
ENDBRANCH  10  24
TORSDOF 8
ENDMDL
MODEL 6
REMARK VINA RESULT:      -8.6     26.889     29.574
REMARK  Name = 24776703
REMARK  8 active torsions:
REMARK  status: ('A' for Active; 'I' for Inactive)
REMARK    1  A    between atoms: N_13  and  C_22
REMARK    2  A    between atoms: C_14  and  C_18
REMARK    3  A    between atoms: C_18  and  C_23
REMARK    4  A    between atoms: C_19  and  C_20
REMARK    5  A    between atoms: C_20  and  C_22
REMARK    6  A    between atoms: C_21  and  C_25
REMARK    7  A    between atoms: C_22  and  C_24
REMARK    8  A    between atoms: C_24  and  C_28
REMARK                            x       y       z     vdW  Elec       q    Type
REMARK                         _______ _______ _______ _____ _____    ______ ____
ROOT
ATOM      1  O   UNL     1      48.121  75.627  50.143  0.00  0.00    +0.000 OA
ATOM      2  N   UNL     1      46.084  76.315  50.937  0.00  0.00    +0.000 N 
ATOM      3  N   UNL     1      44.052  78.182  51.403  0.00  0.00    +0.000 N 
ATOM      4  N   UNL     1      45.315  79.949  51.432  0.00  0.00    +0.000 NA
ATOM      5  N   UNL     1      44.003  80.345  51.563  0.00  0.00    +0.000 NA
ATOM      6  C   UNL     1      46.514  77.753  50.931  0.00  0.00    +0.000 C 
ATOM      7  C   UNL     1      44.956  75.977  51.813  0.00  0.00    +0.000 C 
ATOM      8  C   UNL     1      45.333  78.644  51.260  0.00  0.00    +0.000 A 
ATOM      9  C   UNL     1      43.719  76.782  51.461  0.00  0.00    +0.000 C 
ATOM     10  C   UNL     1      46.994  75.339  50.538  0.00  0.00    +0.000 C 
ATOM     11  C   UNL     1      43.233  79.271  51.506  0.00  0.00    +0.000 A 
ENDROOT
BRANCH  11  15
ATOM     12  F   UNL     1      41.174  80.420  51.273  0.00  0.00    +0.000 F 
ATOM     13  F   UNL     1      41.271  78.845  52.760  0.00  0.00    +0.000 F 
ATOM     14  F   UNL     1      41.241  78.346  50.631  0.00  0.00    +0.000 F 
ATOM     15  C   UNL     1      41.749  79.214  51.545  0.00  0.00    +0.000 C 
ENDBRANCH  11  15
BRANCH   6  16
ATOM     16  C   UNL     1      47.205  78.265  49.626  0.00  0.00    +0.000 C 
BRANCH  16  18
ATOM     17  F   UNL     1      49.109  78.600  47.547  0.00  0.00    +0.000 F 
ATOM     18  C   UNL     1      48.570  78.882  49.840  0.00  0.00    +0.000 A 
ATOM     19  C   UNL     1      49.479  78.963  48.782  0.00  0.00    +0.000 A 
ATOM     20  C   UNL     1      48.969  79.351  51.097  0.00  0.00    +0.000 A 
ATOM     21  C   UNL     1      50.778  79.413  48.978  0.00  0.00    +0.000 A 
ATOM     22  C   UNL     1      50.272  79.813  51.299  0.00  0.00    +0.000 A 
ATOM     23  C   UNL     1      51.182  79.824  50.245  0.00  0.00    +0.000 A 
ENDBRANCH  16  18
ENDBRANCH   6  16
BRANCH  10  24
ATOM     24  C   UNL     1      46.511  73.894  50.552  0.00  0.00    +0.000 C 
BRANCH  24  25
ATOM     25  C   UNL     1      47.345  72.957  49.668  0.00  0.00    +0.000 C 
BRANCH  25  26
ATOM     26  N   UNL     1      46.926  73.177  48.266  0.00  0.00    +0.000 NA
ATOM     27  H   UNL     1      47.752  73.256  47.670  0.00  0.00    +0.000 HD
ATOM     28  H   UNL     1      46.455  74.079  48.190  0.00  0.00    +0.000 HD
ENDBRANCH  25  26
BRANCH  25  29
ATOM     29  C   UNL     1      47.149  71.472  50.062  0.00  0.00    +0.000 C 
BRANCH  29  33
ATOM     30  F   UNL     1      47.043  69.156  48.385  0.00  0.00    +0.000 F 
ATOM     31  F   UNL     1      51.876  70.401  50.569  0.00  0.00    +0.000 F 
ATOM     32  F   UNL     1      51.598  68.169  49.002  0.00  0.00    +0.000 F 
ATOM     33  C   UNL     1      48.340  70.597  49.762  0.00  0.00    +0.000 A 
ATOM     34  C   UNL     1      48.223  69.467  48.936  0.00  0.00    +0.000 A 
ATOM     35  C   UNL     1      49.594  70.913  50.302  0.00  0.00    +0.000 A 
ATOM     36  C   UNL     1      50.685  70.093  50.038  0.00  0.00    +0.000 A 
ATOM     37  C   UNL     1      49.315  68.643  48.678  0.00  0.00    +0.000 A 
ATOM     38  C   UNL     1      50.544  68.963  49.239  0.00  0.00    +0.000 A 
ENDBRANCH  29  33
ENDBRANCH  25  29
ENDBRANCH  24  25
ENDBRANCH  10  24
TORSDOF 8
ENDMDL
MODEL 7
REMARK VINA RESULT:      -7.6     26.924     29.421
REMARK  Name = 24776703
REMARK  8 active torsions:
REMARK  status: ('A' for Active; 'I' for Inactive)
REMARK    1  A    between atoms: N_13  and  C_22
REMARK    2  A    between atoms: C_14  and  C_18
REMARK    3  A    between atoms: C_18  and  C_23
REMARK    4  A    between atoms: C_19  and  C_20
REMARK    5  A    between atoms: C_20  and  C_22
REMARK    6  A    between atoms: C_21  and  C_25
REMARK    7  A    between atoms: C_22  and  C_24
REMARK    8  A    between atoms: C_24  and  C_28
REMARK                            x       y       z     vdW  Elec       q    Type
REMARK                         _______ _______ _______ _____ _____    ______ ____
ROOT
ATOM      1  O   UNL     1      47.799  75.368  50.014  0.00  0.00    +0.000 OA
ATOM      2  N   UNL     1      45.935  75.870  51.248  0.00  0.00    +0.000 N 
ATOM      3  N   UNL     1      43.954  77.569  52.258  0.00  0.00    +0.000 N 
ATOM      4  N   UNL     1      45.114  79.405  52.182  0.00  0.00    +0.000 NA
ATOM      5  N   UNL     1      43.837  79.708  52.602  0.00  0.00    +0.000 NA
ATOM      6  C   UNL     1      46.287  77.329  51.276  0.00  0.00    +0.000 C 
ATOM      7  C   UNL     1      45.024  75.402  52.299  0.00  0.00    +0.000 C 
ATOM      8  C   UNL     1      45.157  78.119  51.903  0.00  0.00    +0.000 A 
ATOM      9  C   UNL     1      43.705  76.151  52.265  0.00  0.00    +0.000 C 
ATOM     10  C   UNL     1      46.790  74.983  50.598  0.00  0.00    +0.000 C 
ATOM     11  C   UNL     1      43.123  78.595  52.610  0.00  0.00    +0.000 A 
ENDROOT
BRANCH  11  15
ATOM     12  F   UNL     1      40.974  77.875  51.918  0.00  0.00    +0.000 F 
ATOM     13  F   UNL     1      41.074  79.631  53.186  0.00  0.00    +0.000 F 
ATOM     14  F   UNL     1      41.477  77.650  54.019  0.00  0.00    +0.000 F 
ATOM     15  C   UNL     1      41.681  78.444  52.936  0.00  0.00    +0.000 C 
ENDBRANCH  11  15
BRANCH   6  16
ATOM     16  C   UNL     1      46.676  77.974  49.907  0.00  0.00    +0.000 C 
BRANCH  16  18
ATOM     17  F   UNL     1      48.069  79.253  52.025  0.00  0.00    +0.000 F 
ATOM     18  C   UNL     1      48.122  78.411  49.808  0.00  0.00    +0.000 A 
ATOM     19  C   UNL     1      48.727  79.088  50.870  0.00  0.00    +0.000 A 
ATOM     20  C   UNL     1      48.874  78.185  48.648  0.00  0.00    +0.000 A 
ATOM     21  C   UNL     1      50.011  79.604  50.761  0.00  0.00    +0.000 A 
ATOM     22  C   UNL     1      50.169  78.696  48.535  0.00  0.00    +0.000 A 
ATOM     23  C   UNL     1      50.730  79.423  49.582  0.00  0.00    +0.000 A 
ENDBRANCH  16  18
ENDBRANCH   6  16
BRANCH  10  24
ATOM     24  C   UNL     1      46.387  73.514  50.589  0.00  0.00    +0.000 C 
BRANCH  24  25
ATOM     25  C   UNL     1      47.209  72.656  49.617  0.00  0.00    +0.000 C 
BRANCH  25  26
ATOM     26  N   UNL     1      46.820  73.043  48.243  0.00  0.00    +0.000 NA
ATOM     27  H   UNL     1      47.653  73.296  47.710  0.00  0.00    +0.000 HD
ATOM     28  H   UNL     1      46.256  73.893  48.276  0.00  0.00    +0.000 HD
ENDBRANCH  25  26
BRANCH  25  29
ATOM     29  C   UNL     1      46.966  71.143  49.841  0.00  0.00    +0.000 C 
BRANCH  29  33
ATOM     30  F   UNL     1      49.745  71.102  49.163  0.00  0.00    +0.000 F 
ATOM     31  F   UNL     1      48.291  68.580  53.769  0.00  0.00    +0.000 F 
ATOM     32  F   UNL     1      50.905  68.562  52.946  0.00  0.00    +0.000 F 
ATOM     33  C   UNL     1      48.024  70.470  50.678  0.00  0.00    +0.000 A 
ATOM     34  C   UNL     1      49.373  70.477  50.288  0.00  0.00    +0.000 A 
ATOM     35  C   UNL     1      47.669  69.831  51.874  0.00  0.00    +0.000 A 
ATOM     36  C   UNL     1      48.646  69.196  52.633  0.00  0.00    +0.000 A 
ATOM     37  C   UNL     1      50.349  69.835  51.045  0.00  0.00    +0.000 A 
ATOM     38  C   UNL     1      49.973  69.190  52.216  0.00  0.00    +0.000 A 
ENDBRANCH  29  33
ENDBRANCH  25  29
ENDBRANCH  24  25
ENDBRANCH  10  24
TORSDOF 8
ENDMDL
MODEL 8
REMARK VINA RESULT:      -7.5     27.599     29.991
REMARK  Name = 24776703
REMARK  8 active torsions:
REMARK  status: ('A' for Active; 'I' for Inactive)
REMARK    1  A    between atoms: N_13  and  C_22
REMARK    2  A    between atoms: C_14  and  C_18
REMARK    3  A    between atoms: C_18  and  C_23
REMARK    4  A    between atoms: C_19  and  C_20
REMARK    5  A    between atoms: C_20  and  C_22
REMARK    6  A    between atoms: C_21  and  C_25
REMARK    7  A    between atoms: C_22  and  C_24
REMARK    8  A    between atoms: C_24  and  C_28
REMARK                            x       y       z     vdW  Elec       q    Type
REMARK                         _______ _______ _______ _____ _____    ______ ____
ROOT
ATOM      1  O   UNL     1      47.908  75.898  50.377  0.00  0.00    +0.000 OA
ATOM      2  N   UNL     1      45.970  76.510  51.437  0.00  0.00    +0.000 N 
ATOM      3  N   UNL     1      43.957  78.303  52.185  0.00  0.00    +0.000 N 
ATOM      4  N   UNL     1      45.155  80.111  52.072  0.00  0.00    +0.000 NA
ATOM      5  N   UNL     1      43.858  80.462  52.377  0.00  0.00    +0.000 NA
ATOM      6  C   UNL     1      46.349  77.962  51.393  0.00  0.00    +0.000 C 
ATOM      7  C   UNL     1      44.977  76.127  52.447  0.00  0.00    +0.000 C 
ATOM      8  C   UNL     1      45.193  78.810  51.883  0.00  0.00    +0.000 A 
ATOM      9  C   UNL     1      43.680  76.892  52.268  0.00  0.00    +0.000 C 
ATOM     10  C   UNL     1      46.852  75.569  50.910  0.00  0.00    +0.000 C 
ATOM     11  C   UNL     1      43.123  79.363  52.407  0.00  0.00    +0.000 A 
ENDROOT
BRANCH  11  15
ATOM     12  F   UNL     1      41.029  80.462  52.558  0.00  0.00    +0.000 F 
ATOM     13  F   UNL     1      41.357  78.763  53.865  0.00  0.00    +0.000 F 
ATOM     14  F   UNL     1      41.050  78.458  51.722  0.00  0.00    +0.000 F 
ATOM     15  C   UNL     1      41.659  79.255  52.637  0.00  0.00    +0.000 C 
ENDBRANCH  11  15
BRANCH   6  16
ATOM     16  C   UNL     1      46.847  78.508  50.016  0.00  0.00    +0.000 C 
BRANCH  16  18
ATOM     17  F   UNL     1      48.566  78.354  47.762  0.00  0.00    +0.000 F 
ATOM     18  C   UNL     1      48.273  79.013  50.021  0.00  0.00    +0.000 A 
ATOM     19  C   UNL     1      49.081  78.852  48.893  0.00  0.00    +0.000 A 
ATOM     20  C   UNL     1      48.829  79.617  51.156  0.00  0.00    +0.000 A 
ATOM     21  C   UNL     1      50.426  79.198  48.911  0.00  0.00    +0.000 A 
ATOM     22  C   UNL     1      50.179  79.974  51.178  0.00  0.00    +0.000 A 
ATOM     23  C   UNL     1      50.983  79.745  50.064  0.00  0.00    +0.000 A 
ENDBRANCH  16  18
ENDBRANCH   6  16
BRANCH  10  24
ATOM     24  C   UNL     1      46.422  74.108  50.969  0.00  0.00    +0.000 C 
BRANCH  24  25
ATOM     25  C   UNL     1      45.979  73.542  49.613  0.00  0.00    +0.000 C 
BRANCH  25  26
ATOM     26  N   UNL     1      45.534  74.680  48.779  0.00  0.00    +0.000 NA
ATOM     27  H   UNL     1      45.078  74.329  47.935  0.00  0.00    +0.000 HD
ATOM     28  H   UNL     1      46.349  75.196  48.445  0.00  0.00    +0.000 HD
ENDBRANCH  25  26
BRANCH  25  29
ATOM     29  C   UNL     1      44.836  72.509  49.768  0.00  0.00    +0.000 C 
BRANCH  29  33
ATOM     30  F   UNL     1      44.442  71.942  52.545  0.00  0.00    +0.000 F 
ATOM     31  F   UNL     1      40.681  75.034  50.102  0.00  0.00    +0.000 F 
ATOM     32  F   UNL     1      40.403  74.341  52.739  0.00  0.00    +0.000 F 
ATOM     33  C   UNL     1      43.662  73.012  50.570  0.00  0.00    +0.000 A 
ATOM     34  C   UNL     1      43.519  72.692  51.930  0.00  0.00    +0.000 A 
ATOM     35  C   UNL     1      42.695  73.823  49.961  0.00  0.00    +0.000 A 
ATOM     36  C   UNL     1      41.604  74.269  50.699  0.00  0.00    +0.000 A 
ATOM     37  C   UNL     1      42.424  73.134  52.667  0.00  0.00    +0.000 A 
ATOM     38  C   UNL     1      41.466  73.919  52.038  0.00  0.00    +0.000 A 
ENDBRANCH  29  33
ENDBRANCH  25  29
ENDBRANCH  24  25
ENDBRANCH  10  24
TORSDOF 8
ENDMDL
MODEL 9
REMARK VINA RESULT:      -7.5     26.828     29.413
REMARK  Name = 24776703
REMARK  8 active torsions:
REMARK  status: ('A' for Active; 'I' for Inactive)
REMARK    1  A    between atoms: N_13  and  C_22
REMARK    2  A    between atoms: C_14  and  C_18
REMARK    3  A    between atoms: C_18  and  C_23
REMARK    4  A    between atoms: C_19  and  C_20
REMARK    5  A    between atoms: C_20  and  C_22
REMARK    6  A    between atoms: C_21  and  C_25
REMARK    7  A    between atoms: C_22  and  C_24
REMARK    8  A    between atoms: C_24  and  C_28
REMARK                            x       y       z     vdW  Elec       q    Type
REMARK                         _______ _______ _______ _____ _____    ______ ____
ROOT
ATOM      1  O   UNL     1      48.031  75.906  50.304  0.00  0.00    +0.000 OA
ATOM      2  N   UNL     1      46.012  76.514  51.204  0.00  0.00    +0.000 N 
ATOM      3  N   UNL     1      43.946  78.305  51.797  0.00  0.00    +0.000 N 
ATOM      4  N   UNL     1      45.151  80.112  51.795  0.00  0.00    +0.000 NA
ATOM      5  N   UNL     1      43.834  80.462  51.995  0.00  0.00    +0.000 NA
ATOM      6  C   UNL     1      46.395  77.965  51.202  0.00  0.00    +0.000 C 
ATOM      7  C   UNL     1      44.939  76.126  52.127  0.00  0.00    +0.000 C 
ATOM      8  C   UNL     1      45.203  78.812  51.601  0.00  0.00    +0.000 A 
ATOM      9  C   UNL     1      43.662  76.894  51.846  0.00  0.00    +0.000 C 
ATOM     10  C   UNL     1      46.934  75.575  50.746  0.00  0.00    +0.000 C 
ATOM     11  C   UNL     1      43.097  79.364  51.956  0.00  0.00    +0.000 A 
ENDROOT
BRANCH  11  15
ATOM     12  F   UNL     1      40.982  80.373  51.607  0.00  0.00    +0.000 F 
ATOM     13  F   UNL     1      41.199  79.091  53.342  0.00  0.00    +0.000 F 
ATOM     14  F   UNL     1      41.122  78.223  51.337  0.00  0.00    +0.000 F 
ATOM     15  C   UNL     1      41.619  79.257  52.063  0.00  0.00    +0.000 C 
ENDBRANCH  11  15
BRANCH   6  16
ATOM     16  C   UNL     1      47.006  78.520  49.875  0.00  0.00    +0.000 C 
BRANCH  16  18
ATOM     17  F   UNL     1      48.888  78.482  47.749  0.00  0.00    +0.000 F 
ATOM     18  C   UNL     1      48.420  79.042  50.006  0.00  0.00    +0.000 A 
ATOM     19  C   UNL     1      49.311  78.939  48.935  0.00  0.00    +0.000 A 
ATOM     20  C   UNL     1      48.881  79.605  51.203  0.00  0.00    +0.000 A 
ATOM     21  C   UNL     1      50.645  79.300  49.066  0.00  0.00    +0.000 A 
ATOM     22  C   UNL     1      50.221  79.977  51.339  0.00  0.00    +0.000 A 
ATOM     23  C   UNL     1      51.108  79.805  50.279  0.00  0.00    +0.000 A 
ENDBRANCH  16  18
ENDBRANCH   6  16
BRANCH  10  24
ATOM     24  C   UNL     1      46.499  74.115  50.759  0.00  0.00    +0.000 C 
BRANCH  24  25
ATOM     25  C   UNL     1      45.866  73.649  49.441  0.00  0.00    +0.000 C 
BRANCH  25  26
ATOM     26  N   UNL     1      44.702  72.801  49.781  0.00  0.00    +0.000 NA
ATOM     27  H   UNL     1      44.358  72.338  48.938  0.00  0.00    +0.000 HD
ATOM     28  H   UNL     1      43.931  73.391  50.095  0.00  0.00    +0.000 HD
ENDBRANCH  25  26
BRANCH  25  29
ATOM     29  C   UNL     1      46.873  72.858  48.569  0.00  0.00    +0.000 C 
BRANCH  29  33
ATOM     30  F   UNL     1      48.703  71.512  50.308  0.00  0.00    +0.000 F 
ATOM     31  F   UNL     1      44.977  68.437  47.789  0.00  0.00    +0.000 F 
ATOM     32  F   UNL     1      46.848  67.282  49.426  0.00  0.00    +0.000 F 
ATOM     33  C   UNL     1      46.858  71.370  48.815  0.00  0.00    +0.000 A 
ATOM     34  C   UNL     1      47.788  70.766  49.674  0.00  0.00    +0.000 A 
ATOM     35  C   UNL     1      45.895  70.567  48.188  0.00  0.00    +0.000 A 
ATOM     36  C   UNL     1      45.897  69.194  48.402  0.00  0.00    +0.000 A 
ATOM     37  C   UNL     1      47.793  69.389  49.884  0.00  0.00    +0.000 A 
ATOM     38  C   UNL     1      46.844  68.610  49.237  0.00  0.00    +0.000 A 
ENDBRANCH  29  33
ENDBRANCH  25  29
ENDBRANCH  24  25
ENDBRANCH  10  24
TORSDOF 8
ENDMDL
