MODEL 1
REMARK VINA RESULT:      -8.9      0.000      0.000
REMARK  Name = 11974440
REMARK  4 active torsions:
REMARK  status: ('A' for Active; 'I' for Inactive)
REMARK    1  A    between atoms: N_10  and  C_14
REMARK    2  A    between atoms: C_13  and  C_19
REMARK    3  A    between atoms: C_17  and  C_20
REMARK    4  A    between atoms: C_27  and  C_30
REMARK                            x       y       z     vdW  Elec       q    Type
REMARK                         _______ _______ _______ _____ _____    ______ ____
ROOT
ATOM      1  C   UNL     1      43.396  51.837  35.906  0.00  0.00    +0.000 C 
ATOM      2  C   UNL     1      44.123  51.560  34.562  0.00  0.00    +0.000 C 
ATOM      3  C   UNL     1      45.375  52.470  34.449  0.00  0.00    +0.000 C 
ATOM      4  C   UNL     1      44.342  51.526  37.087  0.00  0.00    +0.000 C 
ATOM      5  C   UNL     1      46.192  52.507  35.720  0.00  0.00    +0.000 C 
ATOM      6  C   UNL     1      45.761  51.931  36.857  0.00  0.00    +0.000 C 
ENDROOT
BRANCH   5  12
ATOM      7  O   UNL     1      47.671  54.300  36.067  0.00  0.00    +0.000 OA
ATOM      8  N   UNL     1      48.624  52.404  35.177  0.00  0.00    +0.000 N 
ATOM      9  N   UNL     1      50.874  50.786  35.410  0.00  0.00    +0.000 N 
ATOM     10  N   UNL     1      52.300  52.412  35.623  0.00  0.00    +0.000 NA
ATOM     11  N   UNL     1      52.941  51.221  35.900  0.00  0.00    +0.000 NA
ATOM     12  C   UNL     1      47.543  53.154  35.639  0.00  0.00    +0.000 C 
ATOM     13  C   UNL     1      48.578  51.056  34.596  0.00  0.00    +0.000 C 
ATOM     14  C   UNL     1      49.923  53.089  35.051  0.00  0.00    +0.000 C 
ATOM     15  C   UNL     1      49.620  50.124  35.184  0.00  0.00    +0.000 C 
ATOM     16  C   UNL     1      51.039  52.144  35.363  0.00  0.00    +0.000 A 
ATOM     17  C   UNL     1      52.064  50.238  35.802  0.00  0.00    +0.000 A 
BRANCH  17  21
ATOM     18  F   UNL     1      53.530  48.518  36.522  0.00  0.00    +0.000 F 
ATOM     19  F   UNL     1      51.433  48.327  37.047  0.00  0.00    +0.000 F 
ATOM     20  F   UNL     1      52.086  48.020  34.983  0.00  0.00    +0.000 F 
ATOM     21  C   UNL     1      52.267  48.792  36.084  0.00  0.00    +0.000 C 
ENDBRANCH  17  21
ENDBRANCH   5  12
BRANCH   1  25
ATOM     22  F   UNL     1      40.864  52.821  35.001  0.00  0.00    +0.000 F 
ATOM     23  F   UNL     1      40.842  47.951  37.431  0.00  0.00    +0.000 F 
ATOM     24  F   UNL     1      38.517  49.023  36.459  0.00  0.00    +0.000 F 
ATOM     25  C   UNL     1      42.084  51.095  36.088  0.00  0.00    +0.000 A 
ATOM     26  C   UNL     1      40.875  51.627  35.608  0.00  0.00    +0.000 A 
ATOM     27  C   UNL     1      42.058  49.837  36.708  0.00  0.00    +0.000 A 
ATOM     28  C   UNL     1      40.850  49.153  36.835  0.00  0.00    +0.000 A 
ATOM     29  C   UNL     1      39.672  50.939  35.727  0.00  0.00    +0.000 A 
ATOM     30  C   UNL     1      39.672  49.697  36.344  0.00  0.00    +0.000 A 
ENDBRANCH   1  25
BRANCH   2  31
ATOM     31  N   UNL     1      43.259  51.752  33.387  0.00  0.00    +0.000 NA
ATOM     32  H   UNL     1      42.816  52.670  33.431  0.00  0.00    +0.000 HD
ATOM     33  H   UNL     1      43.808  51.739  32.529  0.00  0.00    +0.000 HD
ENDBRANCH   2  31
TORSDOF 4
ENDMDL
MODEL 2
REMARK VINA RESULT:      -8.8      9.849     12.842
REMARK  Name = 11974440
REMARK  4 active torsions:
REMARK  status: ('A' for Active; 'I' for Inactive)
REMARK    1  A    between atoms: N_10  and  C_14
REMARK    2  A    between atoms: C_13  and  C_19
REMARK    3  A    between atoms: C_17  and  C_20
REMARK    4  A    between atoms: C_27  and  C_30
REMARK                            x       y       z     vdW  Elec       q    Type
REMARK                         _______ _______ _______ _____ _____    ______ ____
ROOT
ATOM      1  C   UNL     1      37.150  49.997  44.062  0.00  0.00    +0.000 C 
ATOM      2  C   UNL     1      38.691  49.818  44.010  0.00  0.00    +0.000 C 
ATOM      3  C   UNL     1      39.169  49.843  42.533  0.00  0.00    +0.000 C 
ATOM      4  C   UNL     1      36.759  51.356  43.438  0.00  0.00    +0.000 C 
ATOM      5  C   UNL     1      38.542  50.960  41.731  0.00  0.00    +0.000 C 
ATOM      6  C   UNL     1      37.558  51.727  42.233  0.00  0.00    +0.000 C 
ENDROOT
BRANCH   5  12
ATOM      7  O   UNL     1      40.338  51.341  40.263  0.00  0.00    +0.000 OA
ATOM      8  N   UNL     1      38.266  51.228  39.267  0.00  0.00    +0.000 N 
ATOM      9  N   UNL     1      36.973  50.144  37.056  0.00  0.00    +0.000 N 
ATOM     10  N   UNL     1      38.558  50.574  35.634  0.00  0.00    +0.000 NA
ATOM     11  N   UNL     1      37.628  49.754  35.027  0.00  0.00    +0.000 NA
ATOM     12  C   UNL     1      39.118  51.224  40.371  0.00  0.00    +0.000 C 
ATOM     13  C   UNL     1      36.800  51.152  39.283  0.00  0.00    +0.000 C 
ATOM     14  C   UNL     1      38.855  51.553  37.955  0.00  0.00    +0.000 C 
ATOM     15  C   UNL     1      36.250  50.140  38.297  0.00  0.00    +0.000 C 
ATOM     16  C   UNL     1      38.173  50.777  36.874  0.00  0.00    +0.000 A 
ATOM     17  C   UNL     1      36.683  49.466  35.904  0.00  0.00    +0.000 A 
BRANCH  17  21
ATOM     18  F   UNL     1      34.326  49.221  35.809  0.00  0.00    +0.000 F 
ATOM     19  F   UNL     1      35.517  47.926  34.538  0.00  0.00    +0.000 F 
ATOM     20  F   UNL     1      35.464  47.604  36.700  0.00  0.00    +0.000 F 
ATOM     21  C   UNL     1      35.517  48.559  35.738  0.00  0.00    +0.000 C 
ENDBRANCH  17  21
ENDBRANCH   5  12
BRANCH   1  25
ATOM     22  F   UNL     1      35.570  47.767  44.914  0.00  0.00    +0.000 F 
ATOM     23  F   UNL     1      36.420  51.681  48.599  0.00  0.00    +0.000 F 
ATOM     24  F   UNL     1      34.974  49.450  49.258  0.00  0.00    +0.000 F 
ATOM     25  C   UNL     1      36.538  49.871  45.445  0.00  0.00    +0.000 A 
ATOM     26  C   UNL     1      35.783  48.743  45.807  0.00  0.00    +0.000 A 
ATOM     27  C   UNL     1      36.748  50.868  46.411  0.00  0.00    +0.000 A 
ATOM     28  C   UNL     1      36.210  50.719  47.688  0.00  0.00    +0.000 A 
ATOM     29  C   UNL     1      35.254  48.591  47.085  0.00  0.00    +0.000 A 
ATOM     30  C   UNL     1      35.476  49.590  48.021  0.00  0.00    +0.000 A 
ENDBRANCH   1  25
BRANCH   2  31
ATOM     31  N   UNL     1      39.151  48.582  44.662  0.00  0.00    +0.000 NA
ATOM     32  H   UNL     1      38.428  47.867  44.596  0.00  0.00    +0.000 HD
ATOM     33  H   UNL     1      39.971  48.207  44.187  0.00  0.00    +0.000 HD
ENDBRANCH   2  31
TORSDOF 4
ENDMDL
MODEL 3
REMARK VINA RESULT:      -8.5      3.801     10.321
REMARK  Name = 11974440
REMARK  4 active torsions:
REMARK  status: ('A' for Active; 'I' for Inactive)
REMARK    1  A    between atoms: N_10  and  C_14
REMARK    2  A    between atoms: C_13  and  C_19
REMARK    3  A    between atoms: C_17  and  C_20
REMARK    4  A    between atoms: C_27  and  C_30
REMARK                            x       y       z     vdW  Elec       q    Type
REMARK                         _______ _______ _______ _____ _____    ______ ____
ROOT
ATOM      1  C   UNL     1      44.869  52.423  36.171  0.00  0.00    +0.000 C 
ATOM      2  C   UNL     1      44.986  53.064  37.580  0.00  0.00    +0.000 C 
ATOM      3  C   UNL     1      43.582  53.520  38.062  0.00  0.00    +0.000 C 
ATOM      4  C   UNL     1      43.942  51.189  36.232  0.00  0.00    +0.000 C 
ATOM      5  C   UNL     1      42.512  52.480  37.826  0.00  0.00    +0.000 C 
ATOM      6  C   UNL     1      42.757  51.359  37.123  0.00  0.00    +0.000 C 
ENDROOT
BRANCH   5  12
ATOM      7  O   UNL     1      40.939  53.836  38.924  0.00  0.00    +0.000 OA
ATOM      8  N   UNL     1      40.230  51.698  38.456  0.00  0.00    +0.000 N 
ATOM      9  N   UNL     1      38.027  50.300  37.491  0.00  0.00    +0.000 N 
ATOM     10  N   UNL     1      36.537  51.452  38.572  0.00  0.00    +0.000 NA
ATOM     11  N   UNL     1      35.893  50.639  37.662  0.00  0.00    +0.000 NA
ATOM     12  C   UNL     1      41.180  52.718  38.474  0.00  0.00    +0.000 C 
ATOM     13  C   UNL     1      40.425  50.317  37.997  0.00  0.00    +0.000 C 
ATOM     14  C   UNL     1      38.956  51.943  39.156  0.00  0.00    +0.000 C 
ATOM     15  C   UNL     1      39.322  49.839  37.073  0.00  0.00    +0.000 C 
ATOM     16  C   UNL     1      37.831  51.268  38.438  0.00  0.00    +0.000 A 
ATOM     17  C   UNL     1      36.803  49.964  36.982  0.00  0.00    +0.000 A 
BRANCH  17  21
ATOM     18  F   UNL     1      35.291  48.959  35.456  0.00  0.00    +0.000 F 
ATOM     19  F   UNL     1      37.296  49.384  34.742  0.00  0.00    +0.000 F 
ATOM     20  F   UNL     1      36.952  47.753  36.157  0.00  0.00    +0.000 F 
ATOM     21  C   UNL     1      36.597  49.026  35.847  0.00  0.00    +0.000 C 
ENDBRANCH  17  21
ENDBRANCH   5  12
BRANCH   1  25
ATOM     22  F   UNL     1      45.659  53.215  33.535  0.00  0.00    +0.000 F 
ATOM     23  F   UNL     1      49.243  50.232  36.341  0.00  0.00    +0.000 F 
ATOM     24  F   UNL     1      49.852  51.119  33.824  0.00  0.00    +0.000 F 
ATOM     25  C   UNL     1      46.192  52.041  35.531  0.00  0.00    +0.000 A 
ATOM     26  C   UNL     1      46.527  52.474  34.237  0.00  0.00    +0.000 A 
ATOM     27  C   UNL     1      47.131  51.275  36.240  0.00  0.00    +0.000 A 
ATOM     28  C   UNL     1      48.356  50.965  35.651  0.00  0.00    +0.000 A 
ATOM     29  C   UNL     1      47.753  52.171  33.654  0.00  0.00    +0.000 A 
ATOM     30  C   UNL     1      48.664  51.413  34.375  0.00  0.00    +0.000 A 
ENDBRANCH   1  25
BRANCH   2  31
ATOM     31  N   UNL     1      45.921  54.199  37.624  0.00  0.00    +0.000 NA
ATOM     32  H   UNL     1      46.814  53.926  37.212  0.00  0.00    +0.000 HD
ATOM     33  H   UNL     1      45.573  54.976  37.065  0.00  0.00    +0.000 HD
ENDBRANCH   2  31
TORSDOF 4
ENDMDL
MODEL 4
REMARK VINA RESULT:      -8.4      3.993      9.871
REMARK  Name = 11974440
REMARK  4 active torsions:
REMARK  status: ('A' for Active; 'I' for Inactive)
REMARK    1  A    between atoms: N_10  and  C_14
REMARK    2  A    between atoms: C_13  and  C_19
REMARK    3  A    between atoms: C_17  and  C_20
REMARK    4  A    between atoms: C_27  and  C_30
REMARK                            x       y       z     vdW  Elec       q    Type
REMARK                         _______ _______ _______ _____ _____    ______ ____
ROOT
ATOM      1  C   UNL     1      46.331  51.823  34.895  0.00  0.00    +0.000 C 
ATOM      2  C   UNL     1      45.379  52.902  34.315  0.00  0.00    +0.000 C 
ATOM      3  C   UNL     1      43.962  52.297  34.122  0.00  0.00    +0.000 C 
ATOM      4  C   UNL     1      45.807  51.344  36.267  0.00  0.00    +0.000 C 
ATOM      5  C   UNL     1      43.501  51.488  35.312  0.00  0.00    +0.000 C 
ATOM      6  C   UNL     1      44.322  51.209  36.340  0.00  0.00    +0.000 C 
ENDROOT
BRANCH   5  12
ATOM      7  O   UNL     1      41.698  50.182  34.562  0.00  0.00    +0.000 OA
ATOM      8  N   UNL     1      41.208  51.629  36.283  0.00  0.00    +0.000 N 
ATOM      9  N   UNL     1      39.833  51.750  38.697  0.00  0.00    +0.000 N 
ATOM     10  N   UNL     1      38.091  50.642  38.021  0.00  0.00    +0.000 NA
ATOM     11  N   UNL     1      38.012  50.800  39.390  0.00  0.00    +0.000 NA
ATOM     12  C   UNL     1      42.060  51.070  35.331  0.00  0.00    +0.000 C 
ATOM     13  C   UNL     1      41.517  52.726  37.209  0.00  0.00    +0.000 C 
ATOM     14  C   UNL     1      39.786  51.243  36.233  0.00  0.00    +0.000 C 
ATOM     15  C   UNL     1      41.095  52.433  38.635  0.00  0.00    +0.000 C 
ATOM     16  C   UNL     1      39.214  51.189  37.613  0.00  0.00    +0.000 A 
ATOM     17  C   UNL     1      39.088  51.444  39.803  0.00  0.00    +0.000 A 
BRANCH  17  21
ATOM     18  F   UNL     1      40.633  51.142  41.577  0.00  0.00    +0.000 F 
ATOM     19  F   UNL     1      39.718  53.099  41.372  0.00  0.00    +0.000 F 
ATOM     20  F   UNL     1      38.546  51.405  42.104  0.00  0.00    +0.000 F 
ATOM     21  C   UNL     1      39.485  51.775  41.197  0.00  0.00    +0.000 C 
ENDBRANCH  17  21
ENDBRANCH   5  12
BRANCH   1  25
ATOM     22  F   UNL     1      47.229  53.953  36.584  0.00  0.00    +0.000 F 
ATOM     23  F   UNL     1      51.068  51.315  33.769  0.00  0.00    +0.000 F 
ATOM     24  F   UNL     1      51.752  53.347  35.472  0.00  0.00    +0.000 F 
ATOM     25  C   UNL     1      47.782  52.252  35.020  0.00  0.00    +0.000 A 
ATOM     26  C   UNL     1      48.161  53.298  35.878  0.00  0.00    +0.000 A 
ATOM     27  C   UNL     1      48.787  51.582  34.305  0.00  0.00    +0.000 A 
ATOM     28  C   UNL     1      50.119  51.965  34.460  0.00  0.00    +0.000 A 
ATOM     29  C   UNL     1      49.491  53.673  36.038  0.00  0.00    +0.000 A 
ATOM     30  C   UNL     1      50.465  52.996  35.321  0.00  0.00    +0.000 A 
ENDBRANCH   1  25
BRANCH   2  31
ATOM     31  N   UNL     1      45.855  53.472  33.045  0.00  0.00    +0.000 NA
ATOM     32  H   UNL     1      46.570  52.866  32.642  0.00  0.00    +0.000 HD
ATOM     33  H   UNL     1      45.099  53.517  32.364  0.00  0.00    +0.000 HD
ENDBRANCH   2  31
TORSDOF 4
ENDMDL
MODEL 5
REMARK VINA RESULT:      -8.1      8.230     10.785
REMARK  Name = 11974440
REMARK  4 active torsions:
REMARK  status: ('A' for Active; 'I' for Inactive)
REMARK    1  A    between atoms: N_10  and  C_14
REMARK    2  A    between atoms: C_13  and  C_19
REMARK    3  A    between atoms: C_17  and  C_20
REMARK    4  A    between atoms: C_27  and  C_30
REMARK                            x       y       z     vdW  Elec       q    Type
REMARK                         _______ _______ _______ _____ _____    ______ ____
ROOT
ATOM      1  C   UNL     1      53.470  50.694  36.821  0.00  0.00    +0.000 C 
ATOM      2  C   UNL     1      54.862  51.007  37.432  0.00  0.00    +0.000 C 
ATOM      3  C   UNL     1      54.753  52.237  38.374  0.00  0.00    +0.000 C 
ATOM      4  C   UNL     1      52.465  50.366  37.948  0.00  0.00    +0.000 C 
ATOM      5  C   UNL     1      53.557  52.168  39.294  0.00  0.00    +0.000 C 
ATOM      6  C   UNL     1      52.620  51.211  39.169  0.00  0.00    +0.000 C 
ENDROOT
BRANCH   5  12
ATOM      7  O   UNL     1      52.889  54.227  40.209  0.00  0.00    +0.000 OA
ATOM      8  N   UNL     1      54.041  52.846  41.645  0.00  0.00    +0.000 N 
ATOM      9  N   UNL     1      54.002  51.917  44.266  0.00  0.00    +0.000 N 
ATOM     10  N   UNL     1      53.495  53.824  45.174  0.00  0.00    +0.000 NA
ATOM     11  N   UNL     1      53.392  52.836  46.132  0.00  0.00    +0.000 NA
ATOM     12  C   UNL     1      53.496  53.176  40.404  0.00  0.00    +0.000 C 
ATOM     13  C   UNL     1      54.828  51.651  41.974  0.00  0.00    +0.000 C 
ATOM     14  C   UNL     1      54.020  53.882  42.693  0.00  0.00    +0.000 C 
ATOM     15  C   UNL     1      54.365  50.971  43.248  0.00  0.00    +0.000 C 
ATOM     16  C   UNL     1      53.830  53.255  44.038  0.00  0.00    +0.000 A 
ATOM     17  C   UNL     1      53.668  51.673  45.569  0.00  0.00    +0.000 A 
BRANCH  17  21
ATOM     18  F   UNL     1      54.805  49.660  46.101  0.00  0.00    +0.000 F 
ATOM     19  F   UNL     1      53.297  50.353  47.498  0.00  0.00    +0.000 F 
ATOM     20  F   UNL     1      52.708  49.512  45.568  0.00  0.00    +0.000 F 
ATOM     21  C   UNL     1      53.612  50.318  46.180  0.00  0.00    +0.000 C 
ENDBRANCH  17  21
ENDBRANCH   5  12
BRANCH   1  25
ATOM     22  F   UNL     1      51.644  50.572  34.619  0.00  0.00    +0.000 F 
ATOM     23  F   UNL     1      55.307  46.561  34.949  0.00  0.00    +0.000 F 
ATOM     24  F   UNL     1      53.515  46.631  32.880  0.00  0.00    +0.000 F 
ATOM     25  C   UNL     1      53.463  49.583  35.786  0.00  0.00    +0.000 A 
ATOM     26  C   UNL     1      52.548  49.588  34.719  0.00  0.00    +0.000 A 
ATOM     27  C   UNL     1      54.401  48.542  35.851  0.00  0.00    +0.000 A 
ATOM     28  C   UNL     1      54.404  47.550  34.872  0.00  0.00    +0.000 A 
ATOM     29  C   UNL     1      52.557  48.603  33.738  0.00  0.00    +0.000 A 
ATOM     30  C   UNL     1      53.494  47.584  33.825  0.00  0.00    +0.000 A 
ENDBRANCH   1  25
BRANCH   2  31
ATOM     31  N   UNL     1      55.899  51.248  36.416  0.00  0.00    +0.000 NA
ATOM     32  H   UNL     1      55.761  52.165  35.993  0.00  0.00    +0.000 HD
ATOM     33  H   UNL     1      56.825  51.264  36.842  0.00  0.00    +0.000 HD
ENDBRANCH   2  31
TORSDOF 4
ENDMDL
MODEL 6
REMARK VINA RESULT:      -8.1     22.210     23.423
REMARK  Name = 11974440
REMARK  4 active torsions:
REMARK  status: ('A' for Active; 'I' for Inactive)
REMARK    1  A    between atoms: N_10  and  C_14
REMARK    2  A    between atoms: C_13  and  C_19
REMARK    3  A    between atoms: C_17  and  C_20
REMARK    4  A    between atoms: C_27  and  C_30
REMARK                            x       y       z     vdW  Elec       q    Type
REMARK                         _______ _______ _______ _____ _____    ______ ____
ROOT
ATOM      1  C   UNL     1      29.096  65.716  37.257  0.00  0.00    +0.000 C 
ATOM      2  C   UNL     1      28.441  64.322  37.453  0.00  0.00    +0.000 C 
ATOM      3  C   UNL     1      28.931  63.699  38.787  0.00  0.00    +0.000 C 
ATOM      4  C   UNL     1      28.691  66.652  38.417  0.00  0.00    +0.000 C 
ATOM      5  C   UNL     1      28.906  64.678  39.938  0.00  0.00    +0.000 C 
ATOM      6  C   UNL     1      28.639  65.983  39.751  0.00  0.00    +0.000 C 
ENDROOT
BRANCH   5  12
ATOM      7  O   UNL     1      28.933  62.915  41.490  0.00  0.00    +0.000 OA
ATOM      8  N   UNL     1      29.625  64.950  42.310  0.00  0.00    +0.000 N 
ATOM      9  N   UNL     1      31.594  66.095  43.906  0.00  0.00    +0.000 N 
ATOM     10  N   UNL     1      31.579  64.547  45.430  0.00  0.00    +0.000 NA
ATOM     11  N   UNL     1      32.658  65.378  45.653  0.00  0.00    +0.000 NA
ATOM     12  C   UNL     1      29.123  64.116  41.312  0.00  0.00    +0.000 C 
ATOM     13  C   UNL     1      29.837  66.401  42.225  0.00  0.00    +0.000 C 
ATOM     14  C   UNL     1      29.766  64.382  43.663  0.00  0.00    +0.000 C 
ATOM     15  C   UNL     1      31.198  66.830  42.737  0.00  0.00    +0.000 C 
ATOM     16  C   UNL     1      30.959  64.966  44.349  0.00  0.00    +0.000 A 
ATOM     17  C   UNL     1      32.684  66.298  44.706  0.00  0.00    +0.000 A 
BRANCH  17  21
ATOM     18  F   UNL     1      33.227  68.606  44.781  0.00  0.00    +0.000 F 
ATOM     19  F   UNL     1      34.807  67.193  45.249  0.00  0.00    +0.000 F 
ATOM     20  F   UNL     1      34.107  67.424  43.190  0.00  0.00    +0.000 F 
ATOM     21  C   UNL     1      33.700  67.361  44.483  0.00  0.00    +0.000 C 
ENDBRANCH  17  21
ENDBRANCH   5  12
BRANCH   1  25
ATOM     22  F   UNL     1      30.938  65.833  35.068  0.00  0.00    +0.000 F 
ATOM     23  F   UNL     1      26.062  68.108  34.252  0.00  0.00    +0.000 F 
ATOM     24  F   UNL     1      27.930  68.084  32.250  0.00  0.00    +0.000 F 
ATOM     25  C   UNL     1      28.792  66.383  35.928  0.00  0.00    +0.000 A 
ATOM     26  C   UNL     1      29.735  66.395  34.886  0.00  0.00    +0.000 A 
ATOM     27  C   UNL     1      27.539  66.973  35.696  0.00  0.00    +0.000 A 
ATOM     28  C   UNL     1      27.264  67.549  34.457  0.00  0.00    +0.000 A 
ATOM     29  C   UNL     1      29.456  66.963  33.647  0.00  0.00    +0.000 A 
ATOM     30  C   UNL     1      28.212  67.539  33.444  0.00  0.00    +0.000 A 
ENDBRANCH   1  25
BRANCH   2  31
ATOM     31  N   UNL     1      28.710  63.395  36.341  0.00  0.00    +0.000 NA
ATOM     32  H   UNL     1      29.634  62.979  36.456  0.00  0.00    +0.000 HD
ATOM     33  H   UNL     1      28.044  62.625  36.345  0.00  0.00    +0.000 HD
ENDBRANCH   2  31
TORSDOF 4
ENDMDL
MODEL 7
REMARK VINA RESULT:      -8.1      9.792     12.827
REMARK  Name = 11974440
REMARK  4 active torsions:
REMARK  status: ('A' for Active; 'I' for Inactive)
REMARK    1  A    between atoms: N_10  and  C_14
REMARK    2  A    between atoms: C_13  and  C_19
REMARK    3  A    between atoms: C_17  and  C_20
REMARK    4  A    between atoms: C_27  and  C_30
REMARK                            x       y       z     vdW  Elec       q    Type
REMARK                         _______ _______ _______ _____ _____    ______ ____
ROOT
ATOM      1  C   UNL     1      37.906  51.369  44.579  0.00  0.00    +0.000 C 
ATOM      2  C   UNL     1      37.085  52.308  43.655  0.00  0.00    +0.000 C 
ATOM      3  C   UNL     1      37.904  52.627  42.375  0.00  0.00    +0.000 C 
ATOM      4  C   UNL     1      38.209  50.045  43.843  0.00  0.00    +0.000 C 
ATOM      5  C   UNL     1      38.552  51.402  41.772  0.00  0.00    +0.000 C 
ATOM      6  C   UNL     1      38.534  50.211  42.396  0.00  0.00    +0.000 C 
ENDROOT
BRANCH   5  12
ATOM      7  O   UNL     1      40.381  51.632  40.314  0.00  0.00    +0.000 OA
ATOM      8  N   UNL     1      38.323  51.512  39.291  0.00  0.00    +0.000 N 
ATOM      9  N   UNL     1      37.033  50.318  37.135  0.00  0.00    +0.000 N 
ATOM     10  N   UNL     1      38.651  50.606  35.715  0.00  0.00    +0.000 NA
ATOM     11  N   UNL     1      37.708  49.773  35.149  0.00  0.00    +0.000 NA
ATOM     12  C   UNL     1      39.157  51.558  40.407  0.00  0.00    +0.000 C 
ATOM     13  C   UNL     1      36.855  51.478  39.287  0.00  0.00    +0.000 C 
ATOM     14  C   UNL     1      38.941  51.730  37.971  0.00  0.00    +0.000 C 
ATOM     15  C   UNL     1      36.290  50.418  38.361  0.00  0.00    +0.000 C 
ATOM     16  C   UNL     1      38.253  50.903  36.933  0.00  0.00    +0.000 A 
ATOM     17  C   UNL     1      36.741  49.572  36.026  0.00  0.00    +0.000 A 
BRANCH  17  21
ATOM     18  F   UNL     1      34.381  49.389  35.887  0.00  0.00    +0.000 F 
ATOM     19  F   UNL     1      35.561  47.963  34.755  0.00  0.00    +0.000 F 
ATOM     20  F   UNL     1      35.445  47.815  36.934  0.00  0.00    +0.000 F 
ATOM     21  C   UNL     1      35.552  48.689  35.900  0.00  0.00    +0.000 C 
ENDBRANCH  17  21
ENDBRANCH   5  12
BRANCH   1  25
ATOM     22  F   UNL     1      39.118  51.988  47.098  0.00  0.00    +0.000 F 
ATOM     23  F   UNL     1      34.185  49.698  47.284  0.00  0.00    +0.000 F 
ATOM     24  F   UNL     1      35.471  50.402  49.596  0.00  0.00    +0.000 F 
ATOM     25  C   UNL     1      37.264  51.076  45.923  0.00  0.00    +0.000 A 
ATOM     26  C   UNL     1      37.906  51.417  47.126  0.00  0.00    +0.000 A 
ATOM     27  C   UNL     1      35.992  50.489  45.993  0.00  0.00    +0.000 A 
ATOM     28  C   UNL     1      35.402  50.260  47.234  0.00  0.00    +0.000 A 
ATOM     29  C   UNL     1      37.313  51.196  48.364  0.00  0.00    +0.000 A 
ATOM     30  C   UNL     1      36.055  50.615  48.406  0.00  0.00    +0.000 A 
ENDBRANCH   1  25
BRANCH   2  31
ATOM     31  N   UNL     1      36.682  53.561  44.313  0.00  0.00    +0.000 NA
ATOM     32  H   UNL     1      36.489  53.385  45.299  0.00  0.00    +0.000 HD
ATOM     33  H   UNL     1      37.437  54.243  44.285  0.00  0.00    +0.000 HD
ENDBRANCH   2  31
TORSDOF 4
ENDMDL
MODEL 8
REMARK VINA RESULT:      -7.9     21.655     23.100
REMARK  Name = 11974440
REMARK  4 active torsions:
REMARK  status: ('A' for Active; 'I' for Inactive)
REMARK    1  A    between atoms: N_10  and  C_14
REMARK    2  A    between atoms: C_13  and  C_19
REMARK    3  A    between atoms: C_17  and  C_20
REMARK    4  A    between atoms: C_27  and  C_30
REMARK                            x       y       z     vdW  Elec       q    Type
REMARK                         _______ _______ _______ _____ _____    ______ ____
ROOT
ATOM      1  C   UNL     1      29.829  65.888  38.613  0.00  0.00    +0.000 C 
ATOM      2  C   UNL     1      30.466  64.575  39.144  0.00  0.00    +0.000 C 
ATOM      3  C   UNL     1      30.821  64.739  40.646  0.00  0.00    +0.000 C 
ATOM      4  C   UNL     1      28.534  66.196  39.397  0.00  0.00    +0.000 C 
ATOM      5  C   UNL     1      29.712  65.380  41.447  0.00  0.00    +0.000 C 
ATOM      6  C   UNL     1      28.616  65.890  40.856  0.00  0.00    +0.000 C 
ENDROOT
BRANCH   5  12
ATOM      7  O   UNL     1      29.397  64.398  43.558  0.00  0.00    +0.000 OA
ATOM      8  N   UNL     1      30.579  66.373  43.564  0.00  0.00    +0.000 N 
ATOM      9  N   UNL     1      32.829  67.557  44.691  0.00  0.00    +0.000 N 
ATOM     10  N   UNL     1      32.523  66.765  46.691  0.00  0.00    +0.000 NA
ATOM     11  N   UNL     1      33.774  67.344  46.630  0.00  0.00    +0.000 NA
ATOM     12  C   UNL     1      29.853  65.359  42.940  0.00  0.00    +0.000 C 
ATOM     13  C   UNL     1      31.118  67.586  42.936  0.00  0.00    +0.000 C 
ATOM     14  C   UNL     1      30.645  66.355  45.036  0.00  0.00    +0.000 C 
ATOM     15  C   UNL     1      32.563  67.853  43.311  0.00  0.00    +0.000 C 
ATOM     16  C   UNL     1      31.970  66.865  45.502  0.00  0.00    +0.000 A 
ATOM     17  C   UNL     1      33.971  67.795  45.404  0.00  0.00    +0.000 A 
BRANCH  17  21
ATOM     18  F   UNL     1      35.690  67.734  43.771  0.00  0.00    +0.000 F 
ATOM     19  F   UNL     1      34.975  69.685  44.395  0.00  0.00    +0.000 F 
ATOM     20  F   UNL     1      36.209  68.481  45.740  0.00  0.00    +0.000 F 
ATOM     21  C   UNL     1      35.195  68.423  44.840  0.00  0.00    +0.000 C 
ENDBRANCH  17  21
ENDBRANCH   5  12
BRANCH   1  25
ATOM     22  F   UNL     1      31.619  66.962  36.653  0.00  0.00    +0.000 F 
ATOM     23  F   UNL     1      26.989  64.802  34.778  0.00  0.00    +0.000 F 
ATOM     24  F   UNL     1      28.840  65.829  33.041  0.00  0.00    +0.000 F 
ATOM     25  C   UNL     1      29.544  65.902  37.122  0.00  0.00    +0.000 A 
ATOM     26  C   UNL     1      30.471  66.432  36.209  0.00  0.00    +0.000 A 
ATOM     27  C   UNL     1      28.358  65.347  36.618  0.00  0.00    +0.000 A 
ATOM     28  C   UNL     1      28.129  65.336  35.244  0.00  0.00    +0.000 A 
ATOM     29  C   UNL     1      30.245  66.412  34.836  0.00  0.00    +0.000 A 
ATOM     30  C   UNL     1      29.065  65.858  34.364  0.00  0.00    +0.000 A 
ENDBRANCH   1  25
BRANCH   2  31
ATOM     31  N   UNL     1      31.662  64.166  38.390  0.00  0.00    +0.000 NA
ATOM     32  H   UNL     1      31.553  63.206  38.064  0.00  0.00    +0.000 HD
ATOM     33  H   UNL     1      31.778  64.742  37.558  0.00  0.00    +0.000 HD
ENDBRANCH   2  31
TORSDOF 4
ENDMDL
MODEL 9
REMARK VINA RESULT:      -7.9     21.534     23.193
REMARK  Name = 11974440
REMARK  4 active torsions:
REMARK  status: ('A' for Active; 'I' for Inactive)
REMARK    1  A    between atoms: N_10  and  C_14
REMARK    2  A    between atoms: C_13  and  C_19
REMARK    3  A    between atoms: C_17  and  C_20
REMARK    4  A    between atoms: C_27  and  C_30
REMARK                            x       y       z     vdW  Elec       q    Type
REMARK                         _______ _______ _______ _____ _____    ______ ____
ROOT
ATOM      1  C   UNL     1      30.414  64.743  39.244  0.00  0.00    +0.000 C 
ATOM      2  C   UNL     1      29.532  64.572  40.510  0.00  0.00    +0.000 C 
ATOM      3  C   UNL     1      30.439  64.346  41.750  0.00  0.00    +0.000 C 
ATOM      4  C   UNL     1      31.338  65.970  39.411  0.00  0.00    +0.000 C 
ATOM      5  C   UNL     1      31.608  65.302  41.806  0.00  0.00    +0.000 C 
ATOM      6  C   UNL     1      31.891  66.135  40.788  0.00  0.00    +0.000 C 
ENDROOT
BRANCH   5  12
ATOM      7  O   UNL     1      33.066  64.343  43.379  0.00  0.00    +0.000 OA
ATOM      8  N   UNL     1      32.430  66.509  43.827  0.00  0.00    +0.000 N 
ATOM      9  N   UNL     1      33.463  68.947  44.678  0.00  0.00    +0.000 N 
ATOM     10  N   UNL     1      34.747  68.121  46.224  0.00  0.00    +0.000 NA
ATOM     11  N   UNL     1      35.055  69.456  46.059  0.00  0.00    +0.000 NA
ATOM     12  C   UNL     1      32.399  65.332  43.080  0.00  0.00    +0.000 C 
ATOM     13  C   UNL     1      31.637  67.723  43.594  0.00  0.00    +0.000 C 
ATOM     14  C   UNL     1      33.165  66.484  45.104  0.00  0.00    +0.000 C 
ATOM     15  C   UNL     1      32.469  68.990  43.642  0.00  0.00    +0.000 C 
ATOM     16  C   UNL     1      33.807  67.811  45.359  0.00  0.00    +0.000 A 
ATOM     17  C   UNL     1      34.296  69.948  45.095  0.00  0.00    +0.000 A 
BRANCH  17  21
ATOM     18  F   UNL     1      35.383  72.051  44.949  0.00  0.00    +0.000 F 
ATOM     19  F   UNL     1      34.414  71.302  43.158  0.00  0.00    +0.000 F 
ATOM     20  F   UNL     1      33.218  72.035  44.835  0.00  0.00    +0.000 F 
ATOM     21  C   UNL     1      34.321  71.315  44.511  0.00  0.00    +0.000 C 
ENDBRANCH  17  21
ENDBRANCH   5  12
BRANCH   1  25
ATOM     22  F   UNL     1      30.265  62.651  37.295  0.00  0.00    +0.000 F 
ATOM     23  F   UNL     1      27.516  67.210  36.166  0.00  0.00    +0.000 F 
ATOM     24  F   UNL     1      27.444  65.087  34.438  0.00  0.00    +0.000 F 
ATOM     25  C   UNL     1      29.645  64.853  37.939  0.00  0.00    +0.000 A 
ATOM     26  C   UNL     1      29.599  63.783  37.030  0.00  0.00    +0.000 A 
ATOM     27  C   UNL     1      28.927  66.018  37.631  0.00  0.00    +0.000 A 
ATOM     28  C   UNL     1      28.197  66.088  36.446  0.00  0.00    +0.000 A 
ATOM     29  C   UNL     1      28.862  63.850  35.851  0.00  0.00    +0.000 A 
ATOM     30  C   UNL     1      28.162  65.013  35.570  0.00  0.00    +0.000 A 
ENDBRANCH   1  25
BRANCH   2  31
ATOM     31  N   UNL     1      28.562  63.472  40.394  0.00  0.00    +0.000 NA
ATOM     32  H   UNL     1      27.729  63.797  39.903  0.00  0.00    +0.000 HD
ATOM     33  H   UNL     1      28.945  62.710  39.838  0.00  0.00    +0.000 HD
ENDBRANCH   2  31
TORSDOF 4
ENDMDL
