MODEL 1
REMARK VINA RESULT:      -8.4      0.000      0.000
REMARK  Name = 11477355
REMARK  11 active torsions:
REMARK  status: ('A' for Active; 'I' for Inactive)
REMARK    1  A    between atoms: O_7  and  C_25
REMARK    2  A    between atoms: O_7  and  C_26
REMARK    3  A    between atoms: N_11  and  C_17
REMARK    4  A    between atoms: C_17  and  C_18
REMARK    5  A    between atoms: C_17  and  C_21
REMARK    6  A    between atoms: C_18  and  C_20
REMARK    7  A    between atoms: C_21  and  C_23
REMARK    8  A    between atoms: C_22  and  C_24
REMARK    9  A    between atoms: C_25  and  C_29
REMARK   10  A    between atoms: C_25  and  C_30
REMARK   11  A    between atoms: C_25  and  C_31
REMARK                            x       y       z     vdW  Elec       q    Type
REMARK                         _______ _______ _______ _____ _____    ______ ____
ROOT
ATOM      1  C   UNL     1      38.838  50.666  37.752  0.00  0.00    +0.000 C 
ENDROOT
BRANCH   1   3
ATOM      2  O   UNL     1      40.786  48.804  38.664  0.00  0.00    +0.000 OA
ATOM      3  N   UNL     1      40.204  50.489  37.234  0.00  0.00    +0.000 N 
ATOM      4  C   UNL     1      41.089  49.634  37.819  0.00  0.00    +0.000 C 
ATOM      5  H   UNL     1      40.600  51.164  36.590  0.00  0.00    +0.000 HD
BRANCH   4   6
ATOM      6  O   UNL     1      42.347  49.902  37.385  0.00  0.00    +0.000 OA
BRANCH   6   7
ATOM      7  C   UNL     1      43.338  50.401  38.324  0.00  0.00    +0.000 C 
ATOM      8  C   UNL     1      43.697  49.328  39.355  0.00  0.00    +0.000 C 
ATOM      9  C   UNL     1      44.588  50.714  37.481  0.00  0.00    +0.000 C 
ATOM     10  C   UNL     1      42.882  51.711  38.983  0.00  0.00    +0.000 C 
ENDBRANCH   6   7
ENDBRANCH   4   6
ENDBRANCH   1   3
BRANCH   1  11
ATOM     11  C   UNL     1      38.878  51.728  38.863  0.00  0.00    +0.000 C 
BRANCH  11  21
ATOM     12  O   UNL     1      36.793  51.524  40.023  0.00  0.00    +0.000 OA
ATOM     13  N   UNL     1      38.660  50.899  41.196  0.00  0.00    +0.000 N 
ATOM     14  N   UNL     1      39.731  49.242  43.167  0.00  0.00    +0.000 N 
ATOM     15  N   UNL     1      37.987  49.272  44.471  0.00  0.00    +0.000 NA
ATOM     16  N   UNL     1      38.925  48.420  45.009  0.00  0.00    +0.000 NA
ATOM     17  C   UNL     1      40.113  50.864  41.383  0.00  0.00    +0.000 C 
ATOM     18  C   UNL     1      40.557  49.561  42.029  0.00  0.00    +0.000 C 
ATOM     19  C   UNL     1      37.847  50.733  42.413  0.00  0.00    +0.000 C 
ATOM     20  C   UNL     1      38.474  49.756  43.350  0.00  0.00    +0.000 A 
ATOM     21  C   UNL     1      38.016  51.390  40.066  0.00  0.00    +0.000 C 
ATOM     22  C   UNL     1      39.979  48.394  44.211  0.00  0.00    +0.000 A 
BRANCH  22  26
ATOM     23  F   UNL     1      41.127  46.688  45.389  0.00  0.00    +0.000 F 
ATOM     24  F   UNL     1      42.293  48.385  44.707  0.00  0.00    +0.000 F 
ATOM     25  F   UNL     1      41.557  46.910  43.272  0.00  0.00    +0.000 F 
ATOM     26  C   UNL     1      41.228  47.608  44.389  0.00  0.00    +0.000 C 
ENDBRANCH  22  26
ENDBRANCH  11  21
ENDBRANCH   1  11
BRANCH   1  27
ATOM     27  C   UNL     1      37.873  51.117  36.632  0.00  0.00    +0.000 C 
BRANCH  27  30
ATOM     28  F   UNL     1      35.283  52.002  37.342  0.00  0.00    +0.000 F 
ATOM     29  F   UNL     1      35.689  46.924  35.421  0.00  0.00    +0.000 F 
ATOM     30  C   UNL     1      36.649  50.254  36.511  0.00  0.00    +0.000 A 
ATOM     31  C   UNL     1      35.392  50.749  36.872  0.00  0.00    +0.000 A 
ATOM     32  C   UNL     1      36.743  48.946  36.016  0.00  0.00    +0.000 A 
ATOM     33  C   UNL     1      35.593  48.173  35.892  0.00  0.00    +0.000 A 
ATOM     34  C   UNL     1      34.244  49.974  36.745  0.00  0.00    +0.000 A 
ATOM     35  C   UNL     1      34.345  48.676  36.248  0.00  0.00    +0.000 A 
ENDBRANCH  27  30
ENDBRANCH   1  27
TORSDOF 8
ENDMDL
MODEL 2
REMARK VINA RESULT:      -8.3      1.776      2.341
REMARK  Name = 11477355
REMARK  11 active torsions:
REMARK  status: ('A' for Active; 'I' for Inactive)
REMARK    1  A    between atoms: O_7  and  C_25
REMARK    2  A    between atoms: O_7  and  C_26
REMARK    3  A    between atoms: N_11  and  C_17
REMARK    4  A    between atoms: C_17  and  C_18
REMARK    5  A    between atoms: C_17  and  C_21
REMARK    6  A    between atoms: C_18  and  C_20
REMARK    7  A    between atoms: C_21  and  C_23
REMARK    8  A    between atoms: C_22  and  C_24
REMARK    9  A    between atoms: C_25  and  C_29
REMARK   10  A    between atoms: C_25  and  C_30
REMARK   11  A    between atoms: C_25  and  C_31
REMARK                            x       y       z     vdW  Elec       q    Type
REMARK                         _______ _______ _______ _____ _____    ______ ____
ROOT
ATOM      1  C   UNL     1      38.300  51.090  38.380  0.00  0.00    +0.000 C 
ENDROOT
BRANCH   1   3
ATOM      2  O   UNL     1      40.290  49.117  37.892  0.00  0.00    +0.000 OA
ATOM      3  N   UNL     1      39.652  51.310  37.842  0.00  0.00    +0.000 N 
ATOM      4  C   UNL     1      40.561  50.300  37.748  0.00  0.00    +0.000 C 
ATOM      5  H   UNL     1      40.024  52.250  37.757  0.00  0.00    +0.000 HD
BRANCH   4   6
ATOM      6  O   UNL     1      41.803  50.812  37.557  0.00  0.00    +0.000 OA
BRANCH   6   7
ATOM      7  C   UNL     1      42.194  51.273  36.235  0.00  0.00    +0.000 C 
ATOM      8  C   UNL     1      41.833  52.749  36.046  0.00  0.00    +0.000 C 
ATOM      9  C   UNL     1      43.726  51.129  36.181  0.00  0.00    +0.000 C 
ATOM     10  C   UNL     1      41.605  50.384  35.130  0.00  0.00    +0.000 C 
ENDBRANCH   6   7
ENDBRANCH   4   6
ENDBRANCH   1   3
BRANCH   1  11
ATOM     11  C   UNL     1      38.155  51.912  39.671  0.00  0.00    +0.000 C 
BRANCH  11  21
ATOM     12  O   UNL     1      36.732  50.847  41.276  0.00  0.00    +0.000 OA
ATOM     13  N   UNL     1      38.984  50.545  41.573  0.00  0.00    +0.000 N 
ATOM     14  N   UNL     1      41.011  48.869  42.501  0.00  0.00    +0.000 N 
ATOM     15  N   UNL     1      39.907  48.090  44.208  0.00  0.00    +0.000 NA
ATOM     16  N   UNL     1      41.124  47.450  44.141  0.00  0.00    +0.000 NA
ATOM     17  C   UNL     1      40.380  50.895  41.294  0.00  0.00    +0.000 C 
ATOM     18  C   UNL     1      41.277  49.667  41.330  0.00  0.00    +0.000 C 
ATOM     19  C   UNL     1      38.731  49.875  42.861  0.00  0.00    +0.000 C 
ATOM     20  C   UNL     1      39.838  48.938  43.206  0.00  0.00    +0.000 A 
ATOM     21  C   UNL     1      37.884  51.071  40.905  0.00  0.00    +0.000 C 
ATOM     22  C   UNL     1      41.789  47.916  43.097  0.00  0.00    +0.000 A 
BRANCH  22  26
ATOM     23  F   UNL     1      44.028  48.545  42.641  0.00  0.00    +0.000 F 
ATOM     24  F   UNL     1      43.139  47.033  41.365  0.00  0.00    +0.000 F 
ATOM     25  F   UNL     1      43.686  46.550  43.426  0.00  0.00    +0.000 F 
ATOM     26  C   UNL     1      43.142  47.511  42.634  0.00  0.00    +0.000 C 
ENDBRANCH  22  26
ENDBRANCH  11  21
ENDBRANCH   1  11
BRANCH   1  27
ATOM     27  C   UNL     1      37.220  51.521  37.361  0.00  0.00    +0.000 C 
BRANCH  27  30
ATOM     28  F   UNL     1      38.334  49.708  35.499  0.00  0.00    +0.000 F 
ATOM     29  F   UNL     1      33.166  48.832  36.972  0.00  0.00    +0.000 F 
ATOM     30  C   UNL     1      36.452  50.369  36.776  0.00  0.00    +0.000 A 
ATOM     31  C   UNL     1      37.059  49.501  35.864  0.00  0.00    +0.000 A 
ATOM     32  C   UNL     1      35.122  50.135  37.151  0.00  0.00    +0.000 A 
ATOM     33  C   UNL     1      34.437  49.049  36.613  0.00  0.00    +0.000 A 
ATOM     34  C   UNL     1      36.372  48.415  35.330  0.00  0.00    +0.000 A 
ATOM     35  C   UNL     1      35.051  48.187  35.710  0.00  0.00    +0.000 A 
ENDBRANCH  27  30
ENDBRANCH   1  27
TORSDOF 8
ENDMDL
MODEL 3
REMARK VINA RESULT:      -8.2      3.489      4.251
REMARK  Name = 11477355
REMARK  11 active torsions:
REMARK  status: ('A' for Active; 'I' for Inactive)
REMARK    1  A    between atoms: O_7  and  C_25
REMARK    2  A    between atoms: O_7  and  C_26
REMARK    3  A    between atoms: N_11  and  C_17
REMARK    4  A    between atoms: C_17  and  C_18
REMARK    5  A    between atoms: C_17  and  C_21
REMARK    6  A    between atoms: C_18  and  C_20
REMARK    7  A    between atoms: C_21  and  C_23
REMARK    8  A    between atoms: C_22  and  C_24
REMARK    9  A    between atoms: C_25  and  C_29
REMARK   10  A    between atoms: C_25  and  C_30
REMARK   11  A    between atoms: C_25  and  C_31
REMARK                            x       y       z     vdW  Elec       q    Type
REMARK                         _______ _______ _______ _____ _____    ______ ____
ROOT
ATOM      1  C   UNL     1      39.194  50.960  37.917  0.00  0.00    +0.000 C 
ENDROOT
BRANCH   1   3
ATOM      2  O   UNL     1      41.096  49.111  36.890  0.00  0.00    +0.000 OA
ATOM      3  N   UNL     1      40.616  51.216  37.639  0.00  0.00    +0.000 N 
ATOM      4  C   UNL     1      41.461  50.223  37.245  0.00  0.00    +0.000 C 
ATOM      5  H   UNL     1      41.056  52.070  37.962  0.00  0.00    +0.000 HD
BRANCH   4   6
ATOM      6  O   UNL     1      42.749  50.627  37.388  0.00  0.00    +0.000 OA
BRANCH   6   7
ATOM      7  C   UNL     1      43.349  51.481  36.377  0.00  0.00    +0.000 C 
ATOM      8  C   UNL     1      43.180  52.958  36.742  0.00  0.00    +0.000 C 
ATOM      9  C   UNL     1      44.851  51.140  36.383  0.00  0.00    +0.000 C 
ATOM     10  C   UNL     1      42.806  51.163  34.975  0.00  0.00    +0.000 C 
ENDBRANCH   6   7
ENDBRANCH   4   6
ENDBRANCH   1   3
BRANCH   1  11
ATOM     11  C   UNL     1      38.774  51.824  39.118  0.00  0.00    +0.000 C 
BRANCH  11  21
ATOM     12  O   UNL     1      39.472  50.176  40.709  0.00  0.00    +0.000 OA
ATOM     13  N   UNL     1      37.613  51.392  41.272  0.00  0.00    +0.000 N 
ATOM     14  N   UNL     1      36.074  52.484  43.324  0.00  0.00    +0.000 N 
ATOM     15  N   UNL     1      36.372  50.852  44.735  0.00  0.00    +0.000 NA
ATOM     16  N   UNL     1      35.636  51.839  45.352  0.00  0.00    +0.000 NA
ATOM     17  C   UNL     1      36.514  52.300  40.931  0.00  0.00    +0.000 C 
ATOM     18  C   UNL     1      36.178  53.223  42.091  0.00  0.00    +0.000 C 
ATOM     19  C   UNL     1      37.399  50.531  42.448  0.00  0.00    +0.000 C 
ATOM     20  C   UNL     1      36.645  51.253  43.513  0.00  0.00    +0.000 A 
ATOM     21  C   UNL     1      38.656  51.050  40.418  0.00  0.00    +0.000 C 
ATOM     22  C   UNL     1      35.465  52.834  44.498  0.00  0.00    +0.000 A 
BRANCH  22  26
ATOM     23  F   UNL     1      33.893  54.424  43.712  0.00  0.00    +0.000 F 
ATOM     24  F   UNL     1      35.575  55.170  44.861  0.00  0.00    +0.000 F 
ATOM     25  F   UNL     1      33.972  54.063  45.851  0.00  0.00    +0.000 F 
ATOM     26  C   UNL     1      34.739  54.110  44.732  0.00  0.00    +0.000 C 
ENDBRANCH  22  26
ENDBRANCH  11  21
ENDBRANCH   1  11
BRANCH   1  27
ATOM     27  C   UNL     1      38.318  51.307  36.691  0.00  0.00    +0.000 C 
BRANCH  27  30
ATOM     28  F   UNL     1      35.784  52.317  37.439  0.00  0.00    +0.000 F 
ATOM     29  F   UNL     1      35.926  47.197  35.592  0.00  0.00    +0.000 F 
ATOM     30  C   UNL     1      37.054  50.498  36.609  0.00  0.00    +0.000 A 
ATOM     31  C   UNL     1      35.828  51.054  36.987  0.00  0.00    +0.000 A 
ATOM     32  C   UNL     1      37.080  49.179  36.133  0.00  0.00    +0.000 A 
ATOM     33  C   UNL     1      35.894  48.457  36.045  0.00  0.00    +0.000 A 
ATOM     34  C   UNL     1      34.644  50.329  36.896  0.00  0.00    +0.000 A 
ATOM     35  C   UNL     1      34.678  49.020  36.418  0.00  0.00    +0.000 A 
ENDBRANCH  27  30
ENDBRANCH   1  27
TORSDOF 8
ENDMDL
MODEL 4
REMARK VINA RESULT:      -7.9      2.786      3.359
REMARK  Name = 11477355
REMARK  11 active torsions:
REMARK  status: ('A' for Active; 'I' for Inactive)
REMARK    1  A    between atoms: O_7  and  C_25
REMARK    2  A    between atoms: O_7  and  C_26
REMARK    3  A    between atoms: N_11  and  C_17
REMARK    4  A    between atoms: C_17  and  C_18
REMARK    5  A    between atoms: C_17  and  C_21
REMARK    6  A    between atoms: C_18  and  C_20
REMARK    7  A    between atoms: C_21  and  C_23
REMARK    8  A    between atoms: C_22  and  C_24
REMARK    9  A    between atoms: C_25  and  C_29
REMARK   10  A    between atoms: C_25  and  C_30
REMARK   11  A    between atoms: C_25  and  C_31
REMARK                            x       y       z     vdW  Elec       q    Type
REMARK                         _______ _______ _______ _____ _____    ______ ____
ROOT
ATOM      1  C   UNL     1      37.742  51.146  38.279  0.00  0.00    +0.000 C 
ENDROOT
BRANCH   1   3
ATOM      2  O   UNL     1      39.894  49.362  37.749  0.00  0.00    +0.000 OA
ATOM      3  N   UNL     1      39.127  51.507  37.938  0.00  0.00    +0.000 N 
ATOM      4  C   UNL     1      40.103  50.565  37.806  0.00  0.00    +0.000 C 
ATOM      5  H   UNL     1      39.446  52.465  38.029  0.00  0.00    +0.000 HD
BRANCH   4   6
ATOM      6  O   UNL     1      41.324  51.157  37.835  0.00  0.00    +0.000 OA
BRANCH   6   7
ATOM      7  C   UNL     1      42.038  51.389  36.590  0.00  0.00    +0.000 C 
ATOM      8  C   UNL     1      43.504  50.967  36.718  0.00  0.00    +0.000 C 
ATOM      9  C   UNL     1      41.355  50.487  35.545  0.00  0.00    +0.000 C 
ATOM     10  C   UNL     1      41.891  52.843  36.117  0.00  0.00    +0.000 C 
ENDBRANCH   6   7
ENDBRANCH   4   6
ENDBRANCH   1   3
BRANCH   1  11
ATOM     11  C   UNL     1      37.311  51.985  39.492  0.00  0.00    +0.000 C 
BRANCH  11  21
ATOM     12  O   UNL     1      39.377  52.745  40.435  0.00  0.00    +0.000 OA
ATOM     13  N   UNL     1      38.110  51.376  41.765  0.00  0.00    +0.000 N 
ATOM     14  N   UNL     1      37.371  50.678  44.362  0.00  0.00    +0.000 N 
ATOM     15  N   UNL     1      39.326  51.016  45.260  0.00  0.00    +0.000 NA
ATOM     16  N   UNL     1      38.436  50.677  46.255  0.00  0.00    +0.000 NA
ATOM     17  C   UNL     1      37.012  50.424  41.961  0.00  0.00    +0.000 C 
ATOM     18  C   UNL     1      36.369  50.594  43.329  0.00  0.00    +0.000 C 
ATOM     19  C   UNL     1      39.200  51.318  42.754  0.00  0.00    +0.000 C 
ATOM     20  C   UNL     1      38.674  51.028  44.119  0.00  0.00    +0.000 A 
ATOM     21  C   UNL     1      38.361  52.068  40.585  0.00  0.00    +0.000 C 
ATOM     22  C   UNL     1      37.247  50.483  45.710  0.00  0.00    +0.000 A 
BRANCH  22  26
ATOM     23  F   UNL     1      34.977  50.989  46.162  0.00  0.00    +0.000 F 
ATOM     24  F   UNL     1      36.125  50.061  47.751  0.00  0.00    +0.000 F 
ATOM     25  F   UNL     1      35.525  48.895  46.003  0.00  0.00    +0.000 F 
ATOM     26  C   UNL     1      35.987  50.108  46.403  0.00  0.00    +0.000 C 
ENDBRANCH  22  26
ENDBRANCH  11  21
ENDBRANCH   1  11
BRANCH   1  27
ATOM     27  C   UNL     1      36.790  51.415  37.091  0.00  0.00    +0.000 C 
BRANCH  27  30
ATOM     28  F   UNL     1      37.996  49.443  35.463  0.00  0.00    +0.000 F 
ATOM     29  F   UNL     1      32.809  48.599  36.888  0.00  0.00    +0.000 F 
ATOM     30  C   UNL     1      36.064  50.189  36.614  0.00  0.00    +0.000 A 
ATOM     31  C   UNL     1      36.716  49.244  35.815  0.00  0.00    +0.000 A 
ATOM     32  C   UNL     1      34.729  49.963  36.977  0.00  0.00    +0.000 A 
ATOM     33  C   UNL     1      34.085  48.809  36.541  0.00  0.00    +0.000 A 
ATOM     34  C   UNL     1      36.068  48.091  35.382  0.00  0.00    +0.000 A 
ATOM     35  C   UNL     1      34.742  47.871  35.751  0.00  0.00    +0.000 A 
ENDBRANCH  27  30
ENDBRANCH   1  27
TORSDOF 8
ENDMDL
MODEL 5
REMARK VINA RESULT:      -7.5      3.871      8.193
REMARK  Name = 11477355
REMARK  11 active torsions:
REMARK  status: ('A' for Active; 'I' for Inactive)
REMARK    1  A    between atoms: O_7  and  C_25
REMARK    2  A    between atoms: O_7  and  C_26
REMARK    3  A    between atoms: N_11  and  C_17
REMARK    4  A    between atoms: C_17  and  C_18
REMARK    5  A    between atoms: C_17  and  C_21
REMARK    6  A    between atoms: C_18  and  C_20
REMARK    7  A    between atoms: C_21  and  C_23
REMARK    8  A    between atoms: C_22  and  C_24
REMARK    9  A    between atoms: C_25  and  C_29
REMARK   10  A    between atoms: C_25  and  C_30
REMARK   11  A    between atoms: C_25  and  C_31
REMARK                            x       y       z     vdW  Elec       q    Type
REMARK                         _______ _______ _______ _____ _____    ______ ____
ROOT
ATOM      1  C   UNL     1      37.006  51.887  43.951  0.00  0.00    +0.000 C 
ENDROOT
BRANCH   1   3
ATOM      2  O   UNL     1      38.314  50.023  45.655  0.00  0.00    +0.000 OA
ATOM      3  N   UNL     1      37.593  50.594  43.564  0.00  0.00    +0.000 N 
ATOM      4  C   UNL     1      38.290  49.828  44.449  0.00  0.00    +0.000 C 
ATOM      5  H   UNL     1      37.707  50.354  42.585  0.00  0.00    +0.000 HD
BRANCH   4   6
ATOM      6  O   UNL     1      39.005  48.886  43.783  0.00  0.00    +0.000 OA
BRANCH   6   7
ATOM      7  C   UNL     1      40.449  48.837  43.942  0.00  0.00    +0.000 C 
ATOM      8  C   UNL     1      40.967  50.121  44.594  0.00  0.00    +0.000 C 
ATOM      9  C   UNL     1      40.722  47.656  44.892  0.00  0.00    +0.000 C 
ATOM     10  C   UNL     1      41.154  48.536  42.611  0.00  0.00    +0.000 C 
ENDBRANCH   6   7
ENDBRANCH   4   6
ENDBRANCH   1   3
BRANCH   1  11
ATOM     11  C   UNL     1      37.274  52.895  42.822  0.00  0.00    +0.000 C 
BRANCH  11  21
ATOM     12  O   UNL     1      39.596  52.504  42.388  0.00  0.00    +0.000 OA
ATOM     13  N   UNL     1      38.176  52.190  40.617  0.00  0.00    +0.000 N 
ATOM     14  N   UNL     1      37.669  50.804  38.251  0.00  0.00    +0.000 N 
ATOM     15  N   UNL     1      39.742  50.697  37.593  0.00  0.00    +0.000 NA
ATOM     16  N   UNL     1      38.959  50.003  36.698  0.00  0.00    +0.000 NA
ATOM     17  C   UNL     1      36.873  52.348  39.965  0.00  0.00    +0.000 C 
ATOM     18  C   UNL     1      36.545  51.153  39.084  0.00  0.00    +0.000 C 
ATOM     19  C   UNL     1      39.329  51.999  39.719  0.00  0.00    +0.000 C 
ATOM     20  C   UNL     1      38.959  51.168  38.538  0.00  0.00    +0.000 A 
ATOM     21  C   UNL     1      38.451  52.527  41.937  0.00  0.00    +0.000 C 
ATOM     22  C   UNL     1      37.702  50.059  37.104  0.00  0.00    +0.000 A 
BRANCH  22  26
ATOM     23  F   UNL     1      35.489  50.331  36.302  0.00  0.00    +0.000 F 
ATOM     24  F   UNL     1      36.007  48.408  37.160  0.00  0.00    +0.000 F 
ATOM     25  F   UNL     1      36.796  48.988  35.206  0.00  0.00    +0.000 F 
ATOM     26  C   UNL     1      36.514  49.448  36.453  0.00  0.00    +0.000 C 
ENDBRANCH  22  26
ENDBRANCH  11  21
ENDBRANCH   1  11
BRANCH   1  27
ATOM     27  C   UNL     1      35.483  51.756  44.186  0.00  0.00    +0.000 C 
BRANCH  27  30
ATOM     28  F   UNL     1      35.463  50.208  46.552  0.00  0.00    +0.000 F 
ATOM     29  F   UNL     1      33.805  55.375  46.998  0.00  0.00    +0.000 F 
ATOM     30  C   UNL     1      35.033  52.294  45.515  0.00  0.00    +0.000 A 
ATOM     31  C   UNL     1      35.051  51.482  46.652  0.00  0.00    +0.000 A 
ATOM     32  C   UNL     1      34.606  53.623  45.639  0.00  0.00    +0.000 A 
ATOM     33  C   UNL     1      34.214  54.105  46.885  0.00  0.00    +0.000 A 
ATOM     34  C   UNL     1      34.660  51.968  47.896  0.00  0.00    +0.000 A 
ATOM     35  C   UNL     1      34.241  53.292  48.013  0.00  0.00    +0.000 A 
ENDBRANCH  27  30
ENDBRANCH   1  27
TORSDOF 8
ENDMDL
MODEL 6
REMARK VINA RESULT:      -7.5     23.944     26.855
REMARK  Name = 11477355
REMARK  11 active torsions:
REMARK  status: ('A' for Active; 'I' for Inactive)
REMARK    1  A    between atoms: O_7  and  C_25
REMARK    2  A    between atoms: O_7  and  C_26
REMARK    3  A    between atoms: N_11  and  C_17
REMARK    4  A    between atoms: C_17  and  C_18
REMARK    5  A    between atoms: C_17  and  C_21
REMARK    6  A    between atoms: C_18  and  C_20
REMARK    7  A    between atoms: C_21  and  C_23
REMARK    8  A    between atoms: C_22  and  C_24
REMARK    9  A    between atoms: C_25  and  C_29
REMARK   10  A    between atoms: C_25  and  C_30
REMARK   11  A    between atoms: C_25  and  C_31
REMARK                            x       y       z     vdW  Elec       q    Type
REMARK                         _______ _______ _______ _____ _____    ______ ____
ROOT
ATOM      1  C   UNL     1      55.047  69.658  41.806  0.00  0.00    +0.000 C 
ENDROOT
BRANCH   1   3
ATOM      2  O   UNL     1      55.152  71.586  39.718  0.00  0.00    +0.000 OA
ATOM      3  N   UNL     1      55.667  69.495  40.483  0.00  0.00    +0.000 N 
ATOM      4  C   UNL     1      55.566  70.453  39.519  0.00  0.00    +0.000 C 
ATOM      5  H   UNL     1      55.973  68.581  40.168  0.00  0.00    +0.000 HD
BRANCH   4   6
ATOM      6  O   UNL     1      55.910  69.935  38.313  0.00  0.00    +0.000 OA
BRANCH   6   7
ATOM      7  C   UNL     1      57.191  70.283  37.721  0.00  0.00    +0.000 C 
ATOM      8  C   UNL     1      57.753  69.110  36.913  0.00  0.00    +0.000 C 
ATOM      9  C   UNL     1      56.900  71.451  36.760  0.00  0.00    +0.000 C 
ATOM     10  C   UNL     1      58.183  70.788  38.779  0.00  0.00    +0.000 C 
ENDBRANCH   6   7
ENDBRANCH   4   6
ENDBRANCH   1   3
BRANCH   1  11
ATOM     11  C   UNL     1      53.989  68.556  41.982  0.00  0.00    +0.000 C 
BRANCH  11  21
ATOM     12  O   UNL     1      52.579  69.005  43.864  0.00  0.00    +0.000 OA
ATOM     13  N   UNL     1      51.710  69.532  41.810  0.00  0.00    +0.000 N 
ATOM     14  N   UNL     1      50.017  71.199  40.350  0.00  0.00    +0.000 N 
ATOM     15  N   UNL     1      48.493  71.394  41.894  0.00  0.00    +0.000 NA
ATOM     16  N   UNL     1      48.145  72.191  40.826  0.00  0.00    +0.000 NA
ATOM     17  C   UNL     1      51.721  69.451  40.346  0.00  0.00    +0.000 C 
ATOM     18  C   UNL     1      51.230  70.746  39.717  0.00  0.00    +0.000 C 
ATOM     19  C   UNL     1      50.410  69.837  42.431  0.00  0.00    +0.000 C 
ATOM     20  C   UNL     1      49.633  70.806  41.606  0.00  0.00    +0.000 A 
ATOM     21  C   UNL     1      52.708  69.035  42.641  0.00  0.00    +0.000 C 
ATOM     22  C   UNL     1      49.076  72.080  39.894  0.00  0.00    +0.000 A 
BRANCH  22  26
ATOM     23  F   UNL     1      48.187  73.751  38.468  0.00  0.00    +0.000 F 
ATOM     24  F   UNL     1      48.885  71.919  37.541  0.00  0.00    +0.000 F 
ATOM     25  F   UNL     1      50.319  73.358  38.347  0.00  0.00    +0.000 F 
ATOM     26  C   UNL     1      49.119  72.764  38.575  0.00  0.00    +0.000 C 
ENDBRANCH  22  26
ENDBRANCH  11  21
ENDBRANCH   1  11
BRANCH   1  27
ATOM     27  C   UNL     1      56.103  69.553  42.931  0.00  0.00    +0.000 C 
BRANCH  27  30
ATOM     28  F   UNL     1      55.653  72.170  43.904  0.00  0.00    +0.000 F 
ATOM     29  F   UNL     1      60.579  71.150  41.818  0.00  0.00    +0.000 F 
ATOM     30  C   UNL     1      57.142  70.638  42.881  0.00  0.00    +0.000 A 
ATOM     31  C   UNL     1      56.864  71.912  43.384  0.00  0.00    +0.000 A 
ATOM     32  C   UNL     1      58.413  70.384  42.347  0.00  0.00    +0.000 A 
ATOM     33  C   UNL     1      59.367  71.397  42.331  0.00  0.00    +0.000 A 
ATOM     34  C   UNL     1      57.821  72.922  43.368  0.00  0.00    +0.000 A 
ATOM     35  C   UNL     1      59.084  72.661  42.839  0.00  0.00    +0.000 A 
ENDBRANCH  27  30
ENDBRANCH   1  27
TORSDOF 8
ENDMDL
MODEL 7
REMARK VINA RESULT:      -7.5      9.110     11.802
REMARK  Name = 11477355
REMARK  11 active torsions:
REMARK  status: ('A' for Active; 'I' for Inactive)
REMARK    1  A    between atoms: O_7  and  C_25
REMARK    2  A    between atoms: O_7  and  C_26
REMARK    3  A    between atoms: N_11  and  C_17
REMARK    4  A    between atoms: C_17  and  C_18
REMARK    5  A    between atoms: C_17  and  C_21
REMARK    6  A    between atoms: C_18  and  C_20
REMARK    7  A    between atoms: C_21  and  C_23
REMARK    8  A    between atoms: C_22  and  C_24
REMARK    9  A    between atoms: C_25  and  C_29
REMARK   10  A    between atoms: C_25  and  C_30
REMARK   11  A    between atoms: C_25  and  C_31
REMARK                            x       y       z     vdW  Elec       q    Type
REMARK                         _______ _______ _______ _____ _____    ______ ____
ROOT
ATOM      1  C   UNL     1      50.002  50.592  37.558  0.00  0.00    +0.000 C 
ENDROOT
BRANCH   1   3
ATOM      2  O   UNL     1      50.144  49.077  35.156  0.00  0.00    +0.000 OA
ATOM      3  N   UNL     1      51.192  49.938  36.994  0.00  0.00    +0.000 N 
ATOM      4  C   UNL     1      51.121  49.148  35.887  0.00  0.00    +0.000 C 
ATOM      5  H   UNL     1      52.042  49.857  37.541  0.00  0.00    +0.000 HD
BRANCH   4   6
ATOM      6  O   UNL     1      52.251  48.404  35.775  0.00  0.00    +0.000 OA
BRANCH   6   7
ATOM      7  C   UNL     1      53.262  48.778  34.801  0.00  0.00    +0.000 C 
ATOM      8  C   UNL     1      54.664  48.687  35.411  0.00  0.00    +0.000 C 
ATOM      9  C   UNL     1      53.150  47.742  33.667  0.00  0.00    +0.000 C 
ATOM     10  C   UNL     1      52.981  50.161  34.197  0.00  0.00    +0.000 C 
ENDBRANCH   6   7
ENDBRANCH   4   6
ENDBRANCH   1   3
BRANCH   1  11
ATOM     11  C   UNL     1      50.336  51.052  38.987  0.00  0.00    +0.000 C 
BRANCH  11  21
ATOM     12  O   UNL     1      49.176  49.121  39.799  0.00  0.00    +0.000 OA
ATOM     13  N   UNL     1      50.440  50.254  41.338  0.00  0.00    +0.000 N 
ATOM     14  N   UNL     1      51.978  50.104  43.659  0.00  0.00    +0.000 N 
ATOM     15  N   UNL     1      50.775  48.576  44.638  0.00  0.00    +0.000 NA
ATOM     16  N   UNL     1      51.866  48.854  45.432  0.00  0.00    +0.000 NA
ATOM     17  C   UNL     1      51.195  51.435  41.768  0.00  0.00    +0.000 C 
ATOM     18  C   UNL     1      52.377  51.047  42.644  0.00  0.00    +0.000 C 
ATOM     19  C   UNL     1      49.906  49.401  42.414  0.00  0.00    +0.000 C 
ATOM     20  C   UNL     1      50.855  49.324  43.561  0.00  0.00    +0.000 A 
ATOM     21  C   UNL     1      49.921  50.065  40.062  0.00  0.00    +0.000 C 
ATOM     22  C   UNL     1      52.601  49.775  44.831  0.00  0.00    +0.000 A 
BRANCH  22  26
ATOM     23  F   UNL     1      54.247  49.886  46.532  0.00  0.00    +0.000 F 
ATOM     24  F   UNL     1      53.792  51.719  45.465  0.00  0.00    +0.000 F 
ATOM     25  F   UNL     1      54.909  50.122  44.477  0.00  0.00    +0.000 F 
ATOM     26  C   UNL     1      53.871  50.374  45.317  0.00  0.00    +0.000 C 
ENDBRANCH  22  26
ENDBRANCH  11  21
ENDBRANCH   1  11
BRANCH   1  27
ATOM     27  C   UNL     1      49.578  51.808  36.703  0.00  0.00    +0.000 C 
BRANCH  27  30
ATOM     28  F   UNL     1      48.617  53.060  34.357  0.00  0.00    +0.000 F 
ATOM     29  F   UNL     1      44.952  50.414  37.391  0.00  0.00    +0.000 F 
ATOM     30  C   UNL     1      48.134  51.777  36.288  0.00  0.00    +0.000 A 
ATOM     31  C   UNL     1      47.719  52.409  35.112  0.00  0.00    +0.000 A 
ATOM     32  C   UNL     1      47.184  51.097  37.062  0.00  0.00    +0.000 A 
ATOM     33  C   UNL     1      45.856  51.062  36.647  0.00  0.00    +0.000 A 
ATOM     34  C   UNL     1      46.391  52.371  34.699  0.00  0.00    +0.000 A 
ATOM     35  C   UNL     1      45.452  51.690  35.472  0.00  0.00    +0.000 A 
ENDBRANCH  27  30
ENDBRANCH   1  27
TORSDOF 8
ENDMDL
MODEL 8
REMARK VINA RESULT:      -7.4     23.876     26.042
REMARK  Name = 11477355
REMARK  11 active torsions:
REMARK  status: ('A' for Active; 'I' for Inactive)
REMARK    1  A    between atoms: O_7  and  C_25
REMARK    2  A    between atoms: O_7  and  C_26
REMARK    3  A    between atoms: N_11  and  C_17
REMARK    4  A    between atoms: C_17  and  C_18
REMARK    5  A    between atoms: C_17  and  C_21
REMARK    6  A    between atoms: C_18  and  C_20
REMARK    7  A    between atoms: C_21  and  C_23
REMARK    8  A    between atoms: C_22  and  C_24
REMARK    9  A    between atoms: C_25  and  C_29
REMARK   10  A    between atoms: C_25  and  C_30
REMARK   11  A    between atoms: C_25  and  C_31
REMARK                            x       y       z     vdW  Elec       q    Type
REMARK                         _______ _______ _______ _____ _____    ______ ____
ROOT
ATOM      1  C   UNL     1      51.750  70.212  38.719  0.00  0.00    +0.000 C 
ENDROOT
BRANCH   1   3
ATOM      2  O   UNL     1      53.346  69.983  36.375  0.00  0.00    +0.000 OA
ATOM      3  N   UNL     1      52.784  71.151  38.257  0.00  0.00    +0.000 N 
ATOM      4  C   UNL     1      53.562  70.886  37.170  0.00  0.00    +0.000 C 
ATOM      5  H   UNL     1      53.111  71.895  38.864  0.00  0.00    +0.000 HD
BRANCH   4   6
ATOM      6  O   UNL     1      54.638  71.713  37.158  0.00  0.00    +0.000 OA
BRANCH   6   7
ATOM      7  C   UNL     1      55.947  71.191  37.516  0.00  0.00    +0.000 C 
ATOM      8  C   UNL     1      56.739  72.222  38.325  0.00  0.00    +0.000 C 
ATOM      9  C   UNL     1      55.675  69.967  38.410  0.00  0.00    +0.000 C 
ATOM     10  C   UNL     1      56.718  70.704  36.281  0.00  0.00    +0.000 C 
ENDBRANCH   6   7
ENDBRANCH   4   6
ENDBRANCH   1   3
BRANCH   1  11
ATOM     11  C   UNL     1      51.662  70.308  40.251  0.00  0.00    +0.000 C 
BRANCH  11  21
ATOM     12  O   UNL     1      52.250  68.094  40.946  0.00  0.00    +0.000 OA
ATOM     13  N   UNL     1      53.643  69.772  41.651  0.00  0.00    +0.000 N 
ATOM     14  N   UNL     1      56.239  70.507  42.357  0.00  0.00    +0.000 N 
ATOM     15  N   UNL     1      56.759  68.629  43.327  0.00  0.00    +0.000 NA
ATOM     16  N   UNL     1      57.867  69.447  43.327  0.00  0.00    +0.000 NA
ATOM     17  C   UNL     1      53.945  71.189  41.872  0.00  0.00    +0.000 C 
ATOM     18  C   UNL     1      55.425  71.478  41.668  0.00  0.00    +0.000 C 
ATOM     19  C   UNL     1      54.380  68.814  42.494  0.00  0.00    +0.000 C 
ATOM     20  C   UNL     1      55.781  69.270  42.727  0.00  0.00    +0.000 A 
ATOM     21  C   UNL     1      52.524  69.293  40.979  0.00  0.00    +0.000 C 
ATOM     22  C   UNL     1      57.553  70.583  42.728  0.00  0.00    +0.000 A 
BRANCH  22  26
ATOM     23  F   UNL     1      58.119  72.815  43.287  0.00  0.00    +0.000 F 
ATOM     24  F   UNL     1      58.371  72.212  41.219  0.00  0.00    +0.000 F 
ATOM     25  F   UNL     1      59.739  71.471  42.754  0.00  0.00    +0.000 F 
ATOM     26  C   UNL     1      58.437  71.754  42.494  0.00  0.00    +0.000 C 
ENDBRANCH  22  26
ENDBRANCH  11  21
ENDBRANCH   1  11
BRANCH   1  27
ATOM     27  C   UNL     1      50.376  70.548  38.094  0.00  0.00    +0.000 C 
BRANCH  27  30
ATOM     28  F   UNL     1      50.446  73.340  37.651  0.00  0.00    +0.000 F 
ATOM     29  F   UNL     1      47.168  71.578  41.625  0.00  0.00    +0.000 F 
ATOM     30  C   UNL     1      49.573  71.529  38.902  0.00  0.00    +0.000 A 
ATOM     31  C   UNL     1      49.644  72.898  38.632  0.00  0.00    +0.000 A 
ATOM     32  C   UNL     1      48.725  71.084  39.926  0.00  0.00    +0.000 A 
ATOM     33  C   UNL     1      47.974  72.008  40.646  0.00  0.00    +0.000 A 
ATOM     34  C   UNL     1      48.890  73.819  39.353  0.00  0.00    +0.000 A 
ATOM     35  C   UNL     1      48.046  73.369  40.367  0.00  0.00    +0.000 A 
ENDBRANCH  27  30
ENDBRANCH   1  27
TORSDOF 8
ENDMDL
MODEL 9
REMARK VINA RESULT:      -7.3     23.227     26.309
REMARK  Name = 11477355
REMARK  11 active torsions:
REMARK  status: ('A' for Active; 'I' for Inactive)
REMARK    1  A    between atoms: O_7  and  C_25
REMARK    2  A    between atoms: O_7  and  C_26
REMARK    3  A    between atoms: N_11  and  C_17
REMARK    4  A    between atoms: C_17  and  C_18
REMARK    5  A    between atoms: C_17  and  C_21
REMARK    6  A    between atoms: C_18  and  C_20
REMARK    7  A    between atoms: C_21  and  C_23
REMARK    8  A    between atoms: C_22  and  C_24
REMARK    9  A    between atoms: C_25  and  C_29
REMARK   10  A    between atoms: C_25  and  C_30
REMARK   11  A    between atoms: C_25  and  C_31
REMARK                            x       y       z     vdW  Elec       q    Type
REMARK                         _______ _______ _______ _____ _____    ______ ____
ROOT
ATOM      1  C   UNL     1      55.150  71.156  37.867  0.00  0.00    +0.000 C 
ENDROOT
BRANCH   1   3
ATOM      2  O   UNL     1      55.938  69.711  40.187  0.00  0.00    +0.000 OA
ATOM      3  N   UNL     1      55.331  71.693  39.225  0.00  0.00    +0.000 N 
ATOM      4  C   UNL     1      55.610  70.884  40.286  0.00  0.00    +0.000 C 
ATOM      5  H   UNL     1      55.017  72.629  39.453  0.00  0.00    +0.000 HD
BRANCH   4   6
ATOM      6  O   UNL     1      55.389  71.552  41.447  0.00  0.00    +0.000 OA
BRANCH   6   7
ATOM      7  C   UNL     1      56.337  71.421  42.541  0.00  0.00    +0.000 C 
ATOM      8  C   UNL     1      56.294  70.009  43.130  0.00  0.00    +0.000 C 
ATOM      9  C   UNL     1      57.726  71.653  41.917  0.00  0.00    +0.000 C 
ATOM     10  C   UNL     1      56.120  72.503  43.609  0.00  0.00    +0.000 C 
ENDBRANCH   6   7
ENDBRANCH   4   6
ENDBRANCH   1   3
BRANCH   1  11
ATOM     11  C   UNL     1      53.830  71.706  37.303  0.00  0.00    +0.000 C 
BRANCH  11  21
ATOM     12  O   UNL     1      53.004  69.598  36.524  0.00  0.00    +0.000 OA
ATOM     13  N   UNL     1      51.504  70.908  37.657  0.00  0.00    +0.000 N 
ATOM     14  N   UNL     1      49.262  70.989  39.314  0.00  0.00    +0.000 N 
ATOM     15  N   UNL     1      48.258  69.269  38.434  0.00  0.00    +0.000 NA
ATOM     16  N   UNL     1      47.512  69.717  39.501  0.00  0.00    +0.000 NA
ATOM     17  C   UNL     1      51.086  72.193  38.226  0.00  0.00    +0.000 C 
ATOM     18  C   UNL     1      50.276  71.998  39.498  0.00  0.00    +0.000 C 
ATOM     19  C   UNL     1      50.421  69.964  37.328  0.00  0.00    +0.000 C 
ATOM     20  C   UNL     1      49.323  70.034  38.334  0.00  0.00    +0.000 A 
ATOM     21  C   UNL     1      52.757  70.650  37.113  0.00  0.00    +0.000 C 
ATOM     22  C   UNL     1      48.128  70.755  40.042  0.00  0.00    +0.000 A 
BRANCH  22  26
ATOM     23  F   UNL     1      48.549  71.444  42.270  0.00  0.00    +0.000 F 
ATOM     24  F   UNL     1      46.478  71.170  41.686  0.00  0.00    +0.000 F 
ATOM     25  F   UNL     1      47.615  72.879  40.934  0.00  0.00    +0.000 F 
ATOM     26  C   UNL     1      47.691  71.553  41.217  0.00  0.00    +0.000 C 
ENDBRANCH  22  26
ENDBRANCH  11  21
ENDBRANCH   1  11
BRANCH   1  27
ATOM     27  C   UNL     1      56.323  71.567  36.948  0.00  0.00    +0.000 C 
BRANCH  27  30
ATOM     28  F   UNL     1      58.551  71.280  38.666  0.00  0.00    +0.000 F 
ATOM     29  F   UNL     1      58.101  67.661  34.623  0.00  0.00    +0.000 F 
ATOM     30  C   UNL     1      57.358  70.490  36.778  0.00  0.00    +0.000 A 
ATOM     31  C   UNL     1      58.435  70.394  37.664  0.00  0.00    +0.000 A 
ATOM     32  C   UNL     1      57.250  69.553  35.741  0.00  0.00    +0.000 A 
ATOM     33  C   UNL     1      58.208  68.552  35.617  0.00  0.00    +0.000 A 
ATOM     34  C   UNL     1      59.391  69.391  37.537  0.00  0.00    +0.000 A 
ATOM     35  C   UNL     1      59.274  68.460  36.506  0.00  0.00    +0.000 A 
ENDBRANCH  27  30
ENDBRANCH   1  27
TORSDOF 8
ENDMDL
