MODEL 1
REMARK VINA RESULT:      -8.8      0.000      0.000
REMARK  Name = 24777304
REMARK  12 active torsions:
REMARK  status: ('A' for Active; 'I' for Inactive)
REMARK    1  A    between atoms: O_8  and  C_27
REMARK    2  A    between atoms: O_8  and  C_28
REMARK    3  A    between atoms: N_13  and  C_22
REMARK    4  A    between atoms: C_15  and  C_21
REMARK    5  A    between atoms: C_19  and  C_20
REMARK    6  A    between atoms: C_20  and  C_22
REMARK    7  A    between atoms: C_22  and  C_24
REMARK    8  A    between atoms: C_23  and  C_25
REMARK    9  A    between atoms: C_24  and  C_26
REMARK   10  A    between atoms: C_28  and  C_31
REMARK   11  A    between atoms: C_28  and  C_32
REMARK   12  A    between atoms: C_28  and  C_33
REMARK                            x       y       z     vdW  Elec       q    Type
REMARK                         _______ _______ _______ _____ _____    ______ ____
ROOT
ATOM      1  C   UNL     1      52.196  70.042  37.622  0.00  0.00    +0.000 C 
ENDROOT
BRANCH   1   3
ATOM      2  O   UNL     1      53.994  67.850  36.951  0.00  0.00    +0.000 OA
ATOM      3  N   UNL     1      52.688  69.622  36.295  0.00  0.00    +0.000 N 
ATOM      4  C   UNL     1      53.474  68.523  36.074  0.00  0.00    +0.000 C 
ATOM      5  H   UNL     1      52.187  69.917  35.465  0.00  0.00    +0.000 HD
BRANCH   4   6
ATOM      6  O   UNL     1      53.592  68.316  34.735  0.00  0.00    +0.000 OA
BRANCH   6   7
ATOM      7  C   UNL     1      53.168  67.064  34.114  0.00  0.00    +0.000 C 
ATOM      8  C   UNL     1      52.089  66.343  34.932  0.00  0.00    +0.000 C 
ATOM      9  C   UNL     1      52.548  67.451  32.757  0.00  0.00    +0.000 C 
ATOM     10  C   UNL     1      54.372  66.155  33.845  0.00  0.00    +0.000 C 
ENDBRANCH   6   7
ENDBRANCH   4   6
ENDBRANCH   1   3
BRANCH   1  11
ATOM     11  C   UNL     1      52.902  71.348  38.050  0.00  0.00    +0.000 C 
BRANCH  11  21
ATOM     12  O   UNL     1      54.922  71.770  36.808  0.00  0.00    +0.000 OA
ATOM     13  N   UNL     1      55.205  70.911  38.907  0.00  0.00    +0.000 N 
ATOM     14  N   UNL     1      56.683  71.407  41.220  0.00  0.00    +0.000 N 
ATOM     15  N   UNL     1      58.628  71.434  40.211  0.00  0.00    +0.000 NA
ATOM     16  N   UNL     1      58.801  71.848  41.501  0.00  0.00    +0.000 NA
ATOM     17  C   UNL     1      55.248  71.174  41.373  0.00  0.00    +0.000 C 
ATOM     18  C   UNL     1      54.720  70.357  40.170  0.00  0.00    +0.000 C 
ATOM     19  C   UNL     1      56.665  70.863  38.742  0.00  0.00    +0.000 C 
ATOM     20  C   UNL     1      57.345  71.229  40.023  0.00  0.00    +0.000 A 
ATOM     21  C   UNL     1      54.416  71.366  37.852  0.00  0.00    +0.000 C 
ATOM     22  C   UNL     1      54.849  70.445  42.663  0.00  0.00    +0.000 C 
ATOM     23  C   UNL     1      57.621  71.903  42.096  0.00  0.00    +0.000 A 
BRANCH  23  27
ATOM     24  F   UNL     1      56.166  73.041  43.583  0.00  0.00    +0.000 F 
ATOM     25  F   UNL     1      58.292  73.361  43.837  0.00  0.00    +0.000 F 
ATOM     26  F   UNL     1      57.403  71.449  44.405  0.00  0.00    +0.000 F 
ATOM     27  C   UNL     1      57.375  72.431  43.466  0.00  0.00    +0.000 C 
ENDBRANCH  23  27
ENDBRANCH  11  21
ENDBRANCH   1  11
BRANCH   1  28
ATOM     28  C   UNL     1      50.643  70.106  37.653  0.00  0.00    +0.000 C 
BRANCH  28  32
ATOM     29  F   UNL     1      50.669  69.420  40.442  0.00  0.00    +0.000 F 
ATOM     30  F   UNL     1      48.242  74.111  39.123  0.00  0.00    +0.000 F 
ATOM     31  F   UNL     1      48.367  73.300  41.735  0.00  0.00    +0.000 F 
ATOM     32  C   UNL     1      50.003  70.940  38.743  0.00  0.00    +0.000 A 
ATOM     33  C   UNL     1      50.064  70.560  40.091  0.00  0.00    +0.000 A 
ATOM     34  C   UNL     1      49.377  72.159  38.428  0.00  0.00    +0.000 A 
ATOM     35  C   UNL     1      48.830  72.948  39.439  0.00  0.00    +0.000 A 
ATOM     36  C   UNL     1      49.513  71.344  41.101  0.00  0.00    +0.000 A 
ATOM     37  C   UNL     1      48.897  72.541  40.766  0.00  0.00    +0.000 A 
ENDBRANCH  28  32
ENDBRANCH   1  28
TORSDOF 8
ENDMDL
MODEL 2
REMARK VINA RESULT:      -8.5      3.040      7.686
REMARK  Name = 24777304
REMARK  12 active torsions:
REMARK  status: ('A' for Active; 'I' for Inactive)
REMARK    1  A    between atoms: O_8  and  C_27
REMARK    2  A    between atoms: O_8  and  C_28
REMARK    3  A    between atoms: N_13  and  C_22
REMARK    4  A    between atoms: C_15  and  C_21
REMARK    5  A    between atoms: C_19  and  C_20
REMARK    6  A    between atoms: C_20  and  C_22
REMARK    7  A    between atoms: C_22  and  C_24
REMARK    8  A    between atoms: C_23  and  C_25
REMARK    9  A    between atoms: C_24  and  C_26
REMARK   10  A    between atoms: C_28  and  C_31
REMARK   11  A    between atoms: C_28  and  C_32
REMARK   12  A    between atoms: C_28  and  C_33
REMARK                            x       y       z     vdW  Elec       q    Type
REMARK                         _______ _______ _______ _____ _____    ______ ____
ROOT
ATOM      1  C   UNL     1      54.947  70.845  39.327  0.00  0.00    +0.000 C 
ENDROOT
BRANCH   1   3
ATOM      2  O   UNL     1      54.421  71.523  36.543  0.00  0.00    +0.000 OA
ATOM      3  N   UNL     1      55.201  70.040  38.115  0.00  0.00    +0.000 N 
ATOM      4  C   UNL     1      54.989  70.482  36.836  0.00  0.00    +0.000 C 
ATOM      5  H   UNL     1      55.860  69.273  38.159  0.00  0.00    +0.000 HD
BRANCH   4   6
ATOM      6  O   UNL     1      55.494  69.574  35.958  0.00  0.00    +0.000 OA
BRANCH   6   7
ATOM      7  C   UNL     1      56.933  69.418  35.762  0.00  0.00    +0.000 C 
ATOM      8  C   UNL     1      57.501  68.226  36.543  0.00  0.00    +0.000 C 
ATOM      9  C   UNL     1      57.129  69.134  34.261  0.00  0.00    +0.000 C 
ATOM     10  C   UNL     1      57.673  70.717  36.101  0.00  0.00    +0.000 C 
ENDBRANCH   6   7
ENDBRANCH   4   6
ENDBRANCH   1   3
BRANCH   1  11
ATOM     11  C   UNL     1      54.833  69.915  40.555  0.00  0.00    +0.000 C 
BRANCH  11  21
ATOM     12  O   UNL     1      53.990  70.649  42.689  0.00  0.00    +0.000 OA
ATOM     13  N   UNL     1      52.412  70.176  41.105  0.00  0.00    +0.000 N 
ATOM     14  N   UNL     1      50.142  71.325  39.963  0.00  0.00    +0.000 N 
ATOM     15  N   UNL     1      49.125  71.692  41.870  0.00  0.00    +0.000 NA
ATOM     16  N   UNL     1      48.419  72.305  40.875  0.00  0.00    +0.000 NA
ATOM     17  C   UNL     1      51.145  70.770  39.057  0.00  0.00    +0.000 C 
ATOM     18  C   UNL     1      51.978  69.695  39.795  0.00  0.00    +0.000 C 
ATOM     19  C   UNL     1      51.317  70.466  42.041  0.00  0.00    +0.000 C 
ATOM     20  C   UNL     1      50.196  71.156  41.332  0.00  0.00    +0.000 A 
ATOM     21  C   UNL     1      53.730  70.278  41.548  0.00  0.00    +0.000 C 
ATOM     22  C   UNL     1      50.578  70.146  37.776  0.00  0.00    +0.000 C 
ATOM     23  C   UNL     1      49.065  72.149  39.731  0.00  0.00    +0.000 A 
BRANCH  23  27
ATOM     24  F   UNL     1      47.834  73.829  38.596  0.00  0.00    +0.000 F 
ATOM     25  F   UNL     1      48.045  71.915  37.606  0.00  0.00    +0.000 F 
ATOM     26  F   UNL     1      49.762  73.255  37.762  0.00  0.00    +0.000 F 
ATOM     27  C   UNL     1      48.683  72.779  38.437  0.00  0.00    +0.000 C 
ENDBRANCH  23  27
ENDBRANCH  11  21
ENDBRANCH   1  11
BRANCH   1  28
ATOM     28  C   UNL     1      55.994  71.985  39.474  0.00  0.00    +0.000 C 
BRANCH  28  32
ATOM     29  F   UNL     1      56.616  72.065  42.277  0.00  0.00    +0.000 F 
ATOM     30  F   UNL     1      60.580  70.351  38.964  0.00  0.00    +0.000 F 
ATOM     31  F   UNL     1      60.993  70.485  41.667  0.00  0.00    +0.000 F 
ATOM     32  C   UNL     1      57.342  71.620  40.061  0.00  0.00    +0.000 A 
ATOM     33  C   UNL     1      57.580  71.662  41.441  0.00  0.00    +0.000 A 
ATOM     34  C   UNL     1      58.379  71.167  39.225  0.00  0.00    +0.000 A 
ATOM     35  C   UNL     1      59.604  70.785  39.773  0.00  0.00    +0.000 A 
ATOM     36  C   UNL     1      58.804  71.288  41.988  0.00  0.00    +0.000 A 
ATOM     37  C   UNL     1      59.813  70.849  41.145  0.00  0.00    +0.000 A 
ENDBRANCH  28  32
ENDBRANCH   1  28
TORSDOF 8
ENDMDL
MODEL 3
REMARK VINA RESULT:      -7.9     19.448     20.828
REMARK  Name = 24777304
REMARK  12 active torsions:
REMARK  status: ('A' for Active; 'I' for Inactive)
REMARK    1  A    between atoms: O_8  and  C_27
REMARK    2  A    between atoms: O_8  and  C_28
REMARK    3  A    between atoms: N_13  and  C_22
REMARK    4  A    between atoms: C_15  and  C_21
REMARK    5  A    between atoms: C_19  and  C_20
REMARK    6  A    between atoms: C_20  and  C_22
REMARK    7  A    between atoms: C_22  and  C_24
REMARK    8  A    between atoms: C_23  and  C_25
REMARK    9  A    between atoms: C_24  and  C_26
REMARK   10  A    between atoms: C_28  and  C_31
REMARK   11  A    between atoms: C_28  and  C_32
REMARK   12  A    between atoms: C_28  and  C_33
REMARK                            x       y       z     vdW  Elec       q    Type
REMARK                         _______ _______ _______ _____ _____    ______ ____
ROOT
ATOM      1  C   UNL     1      50.068  50.666  37.983  0.00  0.00    +0.000 C 
ENDROOT
BRANCH   1   3
ATOM      2  O   UNL     1      50.231  48.905  35.667  0.00  0.00    +0.000 OA
ATOM      3  N   UNL     1      51.176  49.781  37.570  0.00  0.00    +0.000 N 
ATOM      4  C   UNL     1      51.187  49.045  36.414  0.00  0.00    +0.000 C 
ATOM      5  H   UNL     1      52.104  49.946  37.937  0.00  0.00    +0.000 HD
BRANCH   4   6
ATOM      6  O   UNL     1      52.418  48.492  36.247  0.00  0.00    +0.000 OA
BRANCH   6   7
ATOM      7  C   UNL     1      53.333  48.961  35.210  0.00  0.00    +0.000 C 
ATOM      8  C   UNL     1      54.800  48.667  35.550  0.00  0.00    +0.000 C 
ATOM      9  C   UNL     1      52.977  48.168  33.937  0.00  0.00    +0.000 C 
ATOM     10  C   UNL     1      53.109  50.449  34.920  0.00  0.00    +0.000 C 
ENDBRANCH   6   7
ENDBRANCH   4   6
ENDBRANCH   1   3
BRANCH   1  11
ATOM     11  C   UNL     1      50.301  51.152  39.430  0.00  0.00    +0.000 C 
BRANCH  11  21
ATOM     12  O   UNL     1      49.403  49.076  40.257  0.00  0.00    +0.000 OA
ATOM     13  N   UNL     1      50.258  50.489  41.836  0.00  0.00    +0.000 N 
ATOM     14  N   UNL     1      52.014  50.438  44.002  0.00  0.00    +0.000 N 
ATOM     15  N   UNL     1      51.021  48.772  45.023  0.00  0.00    +0.000 NA
ATOM     16  N   UNL     1      52.194  49.041  45.668  0.00  0.00    +0.000 NA
ATOM     17  C   UNL     1      52.181  51.511  43.024  0.00  0.00    +0.000 C 
ATOM     18  C   UNL     1      50.845  51.751  42.280  0.00  0.00    +0.000 C 
ATOM     19  C   UNL     1      49.885  49.575  42.924  0.00  0.00    +0.000 C 
ATOM     20  C   UNL     1      50.942  49.569  43.983  0.00  0.00    +0.000 A 
ATOM     21  C   UNL     1      49.943  50.146  40.522  0.00  0.00    +0.000 C 
ATOM     22  C   UNL     1      52.654  52.847  43.610  0.00  0.00    +0.000 C 
ATOM     23  C   UNL     1      52.834  49.997  45.015  0.00  0.00    +0.000 A 
BRANCH  23  27
ATOM     24  F   UNL     1      54.877  49.643  46.164  0.00  0.00    +0.000 F 
ATOM     25  F   UNL     1      54.201  51.689  45.950  0.00  0.00    +0.000 F 
ATOM     26  F   UNL     1      54.972  50.609  44.215  0.00  0.00    +0.000 F 
ATOM     27  C   UNL     1      54.206  50.480  45.330  0.00  0.00    +0.000 C 
ENDBRANCH  23  27
ENDBRANCH  11  21
ENDBRANCH   1  11
BRANCH   1  28
ATOM     28  C   UNL     1      49.841  51.803  36.947  0.00  0.00    +0.000 C 
BRANCH  28  32
ATOM     29  F   UNL     1      49.308  53.172  34.478  0.00  0.00    +0.000 F 
ATOM     30  F   UNL     1      45.090  50.632  36.798  0.00  0.00    +0.000 F 
ATOM     31  F   UNL     1      44.769  51.983  34.439  0.00  0.00    +0.000 F 
ATOM     32  C   UNL     1      48.477  51.884  36.292  0.00  0.00    +0.000 A 
ATOM     33  C   UNL     1      48.284  52.554  35.076  0.00  0.00    +0.000 A 
ATOM     34  C   UNL     1      47.374  51.230  36.869  0.00  0.00    +0.000 A 
ATOM     35  C   UNL     1      46.130  51.266  36.239  0.00  0.00    +0.000 A 
ATOM     36  C   UNL     1      47.041  52.596  34.450  0.00  0.00    +0.000 A 
ATOM     37  C   UNL     1      45.967  51.947  35.039  0.00  0.00    +0.000 A 
ENDBRANCH  28  32
ENDBRANCH   1  28
TORSDOF 8
ENDMDL
MODEL 4
REMARK VINA RESULT:      -7.5      3.066      8.091
REMARK  Name = 24777304
REMARK  12 active torsions:
REMARK  status: ('A' for Active; 'I' for Inactive)
REMARK    1  A    between atoms: O_8  and  C_27
REMARK    2  A    between atoms: O_8  and  C_28
REMARK    3  A    between atoms: N_13  and  C_22
REMARK    4  A    between atoms: C_15  and  C_21
REMARK    5  A    between atoms: C_19  and  C_20
REMARK    6  A    between atoms: C_20  and  C_22
REMARK    7  A    between atoms: C_22  and  C_24
REMARK    8  A    between atoms: C_23  and  C_25
REMARK    9  A    between atoms: C_24  and  C_26
REMARK   10  A    between atoms: C_28  and  C_31
REMARK   11  A    between atoms: C_28  and  C_32
REMARK   12  A    between atoms: C_28  and  C_33
REMARK                            x       y       z     vdW  Elec       q    Type
REMARK                         _______ _______ _______ _____ _____    ______ ____
ROOT
ATOM      1  C   UNL     1      55.513  70.294  38.589  0.00  0.00    +0.000 C 
ENDROOT
BRANCH   1   3
ATOM      2  O   UNL     1      57.119  71.254  36.355  0.00  0.00    +0.000 OA
ATOM      3  N   UNL     1      55.476  69.872  37.174  0.00  0.00    +0.000 N 
ATOM      4  C   UNL     1      56.331  70.331  36.208  0.00  0.00    +0.000 C 
ATOM      5  H   UNL     1      55.057  68.982  36.933  0.00  0.00    +0.000 HD
BRANCH   4   6
ATOM      6  O   UNL     1      56.151  69.611  35.069  0.00  0.00    +0.000 OA
BRANCH   6   7
ATOM      7  C   UNL     1      57.029  68.497  34.721  0.00  0.00    +0.000 C 
ATOM      8  C   UNL     1      58.237  68.391  35.660  0.00  0.00    +0.000 C 
ATOM      9  C   UNL     1      56.184  67.219  34.897  0.00  0.00    +0.000 C 
ATOM     10  C   UNL     1      57.461  68.582  33.253  0.00  0.00    +0.000 C 
ENDBRANCH   6   7
ENDBRANCH   4   6
ENDBRANCH   1   3
BRANCH   1  11
ATOM     11  C   UNL     1      54.093  70.220  39.191  0.00  0.00    +0.000 C 
BRANCH  11  21
ATOM     12  O   UNL     1      53.281  71.613  37.402  0.00  0.00    +0.000 OA
ATOM     13  N   UNL     1      51.741  71.029  38.986  0.00  0.00    +0.000 N 
ATOM     14  N   UNL     1      49.165  69.973  39.153  0.00  0.00    +0.000 N 
ATOM     15  N   UNL     1      48.257  71.448  37.810  0.00  0.00    +0.000 NA
ATOM     16  N   UNL     1      47.337  70.474  38.072  0.00  0.00    +0.000 NA
ATOM     17  C   UNL     1      50.193  69.381  40.007  0.00  0.00    +0.000 C 
ATOM     18  C   UNL     1      51.329  70.406  40.242  0.00  0.00    +0.000 C 
ATOM     19  C   UNL     1      50.693  71.822  38.328  0.00  0.00    +0.000 C 
ATOM     20  C   UNL     1      49.378  71.115  38.409  0.00  0.00    +0.000 A 
ATOM     21  C   UNL     1      53.024  71.015  38.443  0.00  0.00    +0.000 C 
ATOM     22  C   UNL     1      49.692  68.895  41.373  0.00  0.00    +0.000 C 
ATOM     23  C   UNL     1      47.900  69.542  38.824  0.00  0.00    +0.000 A 
BRANCH  23  27
ATOM     24  F   UNL     1      48.092  67.190  39.054  0.00  0.00    +0.000 F 
ATOM     25  F   UNL     1      46.159  67.976  38.475  0.00  0.00    +0.000 F 
ATOM     26  F   UNL     1      46.879  68.250  40.518  0.00  0.00    +0.000 F 
ATOM     27  C   UNL     1      47.263  68.255  39.215  0.00  0.00    +0.000 C 
ENDBRANCH  23  27
ENDBRANCH  11  21
ENDBRANCH   1  11
BRANCH   1  28
ATOM     28  C   UNL     1      56.594  69.507  39.382  0.00  0.00    +0.000 C 
BRANCH  28  32
ATOM     29  F   UNL     1      56.457  71.091  41.775  0.00  0.00    +0.000 F 
ATOM     30  F   UNL     1      61.286  70.900  39.271  0.00  0.00    +0.000 F 
ATOM     31  F   UNL     1      60.972  72.354  41.569  0.00  0.00    +0.000 F 
ATOM     32  C   UNL     1      57.754  70.300  39.950  0.00  0.00    +0.000 A 
ATOM     33  C   UNL     1      57.629  71.042  41.132  0.00  0.00    +0.000 A 
ATOM     34  C   UNL     1      59.013  70.261  39.324  0.00  0.00    +0.000 A 
ATOM     35  C   UNL     1      60.091  70.952  39.876  0.00  0.00    +0.000 A 
ATOM     36  C   UNL     1      58.702  71.738  41.680  0.00  0.00    +0.000 A 
ATOM     37  C   UNL     1      59.934  71.687  41.045  0.00  0.00    +0.000 A 
ENDBRANCH  28  32
ENDBRANCH   1  28
TORSDOF 8
ENDMDL
MODEL 5
REMARK VINA RESULT:      -7.4     20.445     22.433
REMARK  Name = 24777304
REMARK  12 active torsions:
REMARK  status: ('A' for Active; 'I' for Inactive)
REMARK    1  A    between atoms: O_8  and  C_27
REMARK    2  A    between atoms: O_8  and  C_28
REMARK    3  A    between atoms: N_13  and  C_22
REMARK    4  A    between atoms: C_15  and  C_21
REMARK    5  A    between atoms: C_19  and  C_20
REMARK    6  A    between atoms: C_20  and  C_22
REMARK    7  A    between atoms: C_22  and  C_24
REMARK    8  A    between atoms: C_23  and  C_25
REMARK    9  A    between atoms: C_24  and  C_26
REMARK   10  A    between atoms: C_28  and  C_31
REMARK   11  A    between atoms: C_28  and  C_32
REMARK   12  A    between atoms: C_28  and  C_33
REMARK                            x       y       z     vdW  Elec       q    Type
REMARK                         _______ _______ _______ _____ _____    ______ ____
ROOT
ATOM      1  C   UNL     1      47.144  50.172  39.252  0.00  0.00    +0.000 C 
ENDROOT
BRANCH   1   3
ATOM      2  O   UNL     1      46.733  48.294  41.441  0.00  0.00    +0.000 OA
ATOM      3  N   UNL     1      46.120  49.116  39.385  0.00  0.00    +0.000 N 
ATOM      4  C   UNL     1      45.960  48.331  40.496  0.00  0.00    +0.000 C 
ATOM      5  H   UNL     1      45.284  49.163  38.816  0.00  0.00    +0.000 HD
BRANCH   4   6
ATOM      6  O   UNL     1      44.822  47.597  40.368  0.00  0.00    +0.000 OA
BRANCH   6   7
ATOM      7  C   UNL     1      43.573  48.004  41.007  0.00  0.00    +0.000 C 
ATOM      8  C   UNL     1      43.517  49.515  41.268  0.00  0.00    +0.000 C 
ATOM      9  C   UNL     1      42.452  47.658  40.009  0.00  0.00    +0.000 C 
ATOM     10  C   UNL     1      43.332  47.201  42.290  0.00  0.00    +0.000 C 
ENDBRANCH   6   7
ENDBRANCH   4   6
ENDBRANCH   1   3
BRANCH   1  11
ATOM     11  C   UNL     1      48.315  49.655  38.387  0.00  0.00    +0.000 C 
BRANCH  11  21
ATOM     12  O   UNL     1      49.988  50.522  39.887  0.00  0.00    +0.000 OA
ATOM     13  N   UNL     1      50.587  50.412  37.685  0.00  0.00    +0.000 N 
ATOM     14  N   UNL     1      52.684  49.476  36.101  0.00  0.00    +0.000 N 
ATOM     15  N   UNL     1      54.253  50.545  37.196  0.00  0.00    +0.000 NA
ATOM     16  N   UNL     1      54.845  49.691  36.310  0.00  0.00    +0.000 NA
ATOM     17  C   UNL     1      51.324  49.125  35.696  0.00  0.00    +0.000 C 
ATOM     18  C   UNL     1      50.325  50.158  36.270  0.00  0.00    +0.000 C 
ATOM     19  C   UNL     1      51.900  51.011  37.963  0.00  0.00    +0.000 C 
ATOM     20  C   UNL     1      52.953  50.370  37.117  0.00  0.00    +0.000 A 
ATOM     21  C   UNL     1      49.686  50.232  38.733  0.00  0.00    +0.000 C 
ATOM     22  C   UNL     1      51.108  49.034  34.181  0.00  0.00    +0.000 C 
ATOM     23  C   UNL     1      53.906  48.990  35.696  0.00  0.00    +0.000 A 
BRANCH  23  27
ATOM     24  F   UNL     1      55.460  47.492  34.716  0.00  0.00    +0.000 F 
ATOM     25  F   UNL     1      53.828  48.183  33.472  0.00  0.00    +0.000 F 
ATOM     26  F   UNL     1      53.444  46.756  35.080  0.00  0.00    +0.000 F 
ATOM     27  C   UNL     1      54.154  47.867  34.752  0.00  0.00    +0.000 C 
ENDBRANCH  23  27
ENDBRANCH  11  21
ENDBRANCH   1  11
BRANCH   1  28
ATOM     28  C   UNL     1      46.516  51.506  38.761  0.00  0.00    +0.000 C 
BRANCH  28  32
ATOM     29  F   UNL     1      43.796  50.817  38.146  0.00  0.00    +0.000 F 
ATOM     30  F   UNL     1      46.899  52.397  33.962  0.00  0.00    +0.000 F 
ATOM     31  F   UNL     1      44.280  51.709  33.564  0.00  0.00    +0.000 F 
ATOM     32  C   UNL     1      45.924  51.524  37.366  0.00  0.00    +0.000 A 
ATOM     33  C   UNL     1      44.583  51.193  37.132  0.00  0.00    +0.000 A 
ATOM     34  C   UNL     1      46.704  51.935  36.271  0.00  0.00    +0.000 A 
ATOM     35  C   UNL     1      46.144  51.997  34.995  0.00  0.00    +0.000 A 
ATOM     36  C   UNL     1      44.024  51.247  35.858  0.00  0.00    +0.000 A 
ATOM     37  C   UNL     1      44.813  51.653  34.792  0.00  0.00    +0.000 A 
ENDBRANCH  28  32
ENDBRANCH   1  28
TORSDOF 8
ENDMDL
MODEL 6
REMARK VINA RESULT:      -7.2     19.275     22.052
REMARK  Name = 24777304
REMARK  12 active torsions:
REMARK  status: ('A' for Active; 'I' for Inactive)
REMARK    1  A    between atoms: O_8  and  C_27
REMARK    2  A    between atoms: O_8  and  C_28
REMARK    3  A    between atoms: N_13  and  C_22
REMARK    4  A    between atoms: C_15  and  C_21
REMARK    5  A    between atoms: C_19  and  C_20
REMARK    6  A    between atoms: C_20  and  C_22
REMARK    7  A    between atoms: C_22  and  C_24
REMARK    8  A    between atoms: C_23  and  C_25
REMARK    9  A    between atoms: C_24  and  C_26
REMARK   10  A    between atoms: C_28  and  C_31
REMARK   11  A    between atoms: C_28  and  C_32
REMARK   12  A    between atoms: C_28  and  C_33
REMARK                            x       y       z     vdW  Elec       q    Type
REMARK                         _______ _______ _______ _____ _____    ______ ____
ROOT
ATOM      1  C   UNL     1      52.656  49.777  39.843  0.00  0.00    +0.000 C 
ENDROOT
BRANCH   1   3
ATOM      2  O   UNL     1      54.764  51.080  41.375  0.00  0.00    +0.000 OA
ATOM      3  N   UNL     1      52.539  50.594  41.068  0.00  0.00    +0.000 N 
ATOM      4  C   UNL     1      53.589  51.232  41.673  0.00  0.00    +0.000 C 
ATOM      5  H   UNL     1      51.644  51.000  41.309  0.00  0.00    +0.000 HD
BRANCH   4   6
ATOM      6  O   UNL     1      53.115  52.042  42.658  0.00  0.00    +0.000 OA
BRANCH   6   7
ATOM      7  C   UNL     1      53.332  51.736  44.070  0.00  0.00    +0.000 C 
ATOM      8  C   UNL     1      53.315  52.994  44.948  0.00  0.00    +0.000 C 
ATOM      9  C   UNL     1      52.148  50.847  44.499  0.00  0.00    +0.000 C 
ATOM     10  C   UNL     1      54.623  50.932  44.261  0.00  0.00    +0.000 C 
ENDBRANCH   6   7
ENDBRANCH   4   6
ENDBRANCH   1   3
BRANCH   1  11
ATOM     11  C   UNL     1      51.564  48.684  39.841  0.00  0.00    +0.000 C 
BRANCH  11  21
ATOM     12  O   UNL     1      49.650  49.556  41.014  0.00  0.00    +0.000 OA
ATOM     13  N   UNL     1      49.382  49.241  38.767  0.00  0.00    +0.000 N 
ATOM     14  N   UNL     1      48.471  50.627  36.524  0.00  0.00    +0.000 N 
ATOM     15  N   UNL     1      46.527  51.152  37.390  0.00  0.00    +0.000 NA
ATOM     16  N   UNL     1      46.674  51.823  36.211  0.00  0.00    +0.000 NA
ATOM     17  C   UNL     1      49.756  49.938  36.416  0.00  0.00    +0.000 C 
ATOM     18  C   UNL     1      49.820  48.788  37.448  0.00  0.00    +0.000 C 
ATOM     19  C   UNL     1      47.980  49.678  38.825  0.00  0.00    +0.000 C 
ATOM     20  C   UNL     1      47.635  50.481  37.612  0.00  0.00    +0.000 A 
ATOM     21  C   UNL     1      50.129  49.195  39.943  0.00  0.00    +0.000 C 
ATOM     22  C   UNL     1      50.060  49.360  35.029  0.00  0.00    +0.000 C 
ATOM     23  C   UNL     1      47.874  51.568  35.717  0.00  0.00    +0.000 A 
BRANCH  23  27
ATOM     24  F   UNL     1      49.758  52.575  34.687  0.00  0.00    +0.000 F 
ATOM     25  F   UNL     1      47.807  53.350  34.159  0.00  0.00    +0.000 F 
ATOM     26  F   UNL     1      48.434  51.391  33.428  0.00  0.00    +0.000 F 
ATOM     27  C   UNL     1      48.460  52.212  34.510  0.00  0.00    +0.000 C 
ENDBRANCH  23  27
ENDBRANCH  11  21
ENDBRANCH   1  11
BRANCH   1  28
ATOM     28  C   UNL     1      52.680  50.670  38.571  0.00  0.00    +0.000 C 
BRANCH  28  32
ATOM     29  F   UNL     1      55.216  52.019  38.541  0.00  0.00    +0.000 F 
ATOM     30  F   UNL     1      54.461  48.198  34.739  0.00  0.00    +0.000 F 
ATOM     31  F   UNL     1      56.819  49.581  34.865  0.00  0.00    +0.000 F 
ATOM     32  C   UNL     1      53.776  50.407  37.559  0.00  0.00    +0.000 A 
ATOM     33  C   UNL     1      55.000  51.087  37.606  0.00  0.00    +0.000 A 
ATOM     34  C   UNL     1      53.607  49.420  36.572  0.00  0.00    +0.000 A 
ATOM     35  C   UNL     1      54.635  49.146  35.670  0.00  0.00    +0.000 A 
ATOM     36  C   UNL     1      56.026  50.820  36.703  0.00  0.00    +0.000 A 
ATOM     37  C   UNL     1      55.835  49.844  35.736  0.00  0.00    +0.000 A 
ENDBRANCH  28  32
ENDBRANCH   1  28
TORSDOF 8
ENDMDL
MODEL 7
REMARK VINA RESULT:      -7.2     25.021     27.456
REMARK  Name = 24777304
REMARK  12 active torsions:
REMARK  status: ('A' for Active; 'I' for Inactive)
REMARK    1  A    between atoms: O_8  and  C_27
REMARK    2  A    between atoms: O_8  and  C_28
REMARK    3  A    between atoms: N_13  and  C_22
REMARK    4  A    between atoms: C_15  and  C_21
REMARK    5  A    between atoms: C_19  and  C_20
REMARK    6  A    between atoms: C_20  and  C_22
REMARK    7  A    between atoms: C_22  and  C_24
REMARK    8  A    between atoms: C_23  and  C_25
REMARK    9  A    between atoms: C_24  and  C_26
REMARK   10  A    between atoms: C_28  and  C_31
REMARK   11  A    between atoms: C_28  and  C_32
REMARK   12  A    between atoms: C_28  and  C_33
REMARK                            x       y       z     vdW  Elec       q    Type
REMARK                         _______ _______ _______ _____ _____    ______ ____
ROOT
ATOM      1  C   UNL     1      36.922  49.464  44.568  0.00  0.00    +0.000 C 
ENDROOT
BRANCH   1   3
ATOM      2  O   UNL     1      39.797  49.239  44.986  0.00  0.00    +0.000 OA
ATOM      3  N   UNL     1      37.759  50.101  45.605  0.00  0.00    +0.000 N 
ATOM      4  C   UNL     1      39.123  49.994  45.671  0.00  0.00    +0.000 C 
ATOM      5  H   UNL     1      37.407  50.914  46.095  0.00  0.00    +0.000 HD
BRANCH   4   6
ATOM      6  O   UNL     1      39.595  50.842  46.623  0.00  0.00    +0.000 OA
BRANCH   6   7
ATOM      7  C   UNL     1      39.949  50.372  47.959  0.00  0.00    +0.000 C 
ATOM      8  C   UNL     1      39.412  48.964  48.243  0.00  0.00    +0.000 C 
ATOM      9  C   UNL     1      41.488  50.304  47.993  0.00  0.00    +0.000 C 
ATOM     10  C   UNL     1      39.495  51.374  49.027  0.00  0.00    +0.000 C 
ENDBRANCH   6   7
ENDBRANCH   4   6
ENDBRANCH   1   3
BRANCH   1  11
ATOM     11  C   UNL     1      35.748  48.713  45.234  0.00  0.00    +0.000 C 
BRANCH  11  21
ATOM     12  O   UNL     1      36.694  47.162  46.815  0.00  0.00    +0.000 OA
ATOM     13  N   UNL     1      35.501  48.893  47.711  0.00  0.00    +0.000 N 
ATOM     14  N   UNL     1      35.756  50.850  49.681  0.00  0.00    +0.000 N 
ATOM     15  N   UNL     1      36.263  49.449  51.289  0.00  0.00    +0.000 NA
ATOM     16  N   UNL     1      36.443  50.722  51.748  0.00  0.00    +0.000 NA
ATOM     17  C   UNL     1      35.289  51.276  48.363  0.00  0.00    +0.000 C 
ATOM     18  C   UNL     1      34.650  50.078  47.623  0.00  0.00    +0.000 C 
ATOM     19  C   UNL     1      35.701  48.387  49.076  0.00  0.00    +0.000 C 
ATOM     20  C   UNL     1      35.911  49.523  50.025  0.00  0.00    +0.000 A 
ATOM     21  C   UNL     1      36.028  48.178  46.637  0.00  0.00    +0.000 C 
ATOM     22  C   UNL     1      34.276  52.428  48.383  0.00  0.00    +0.000 C 
ATOM     23  C   UNL     1      36.209  51.572  50.762  0.00  0.00    +0.000 A 
BRANCH  23  27
ATOM     24  F   UNL     1      35.256  53.738  50.913  0.00  0.00    +0.000 F 
ATOM     25  F   UNL     1      37.058  53.527  49.731  0.00  0.00    +0.000 F 
ATOM     26  F   UNL     1      37.163  53.404  51.909  0.00  0.00    +0.000 F 
ATOM     27  C   UNL     1      36.422  53.044  50.829  0.00  0.00    +0.000 C 
ENDBRANCH  23  27
ENDBRANCH  11  21
ENDBRANCH   1  11
BRANCH   1  28
ATOM     28  C   UNL     1      36.500  50.490  43.479  0.00  0.00    +0.000 C 
BRANCH  28  32
ATOM     29  F   UNL     1      38.391  52.580  42.925  0.00  0.00    +0.000 F 
ATOM     30  F   UNL     1      33.881  54.042  45.598  0.00  0.00    +0.000 F 
ATOM     31  F   UNL     1      35.790  55.903  44.978  0.00  0.00    +0.000 F 
ATOM     32  C   UNL     1      36.330  51.932  43.911  0.00  0.00    +0.000 A 
ATOM     33  C   UNL     1      37.282  52.911  43.595  0.00  0.00    +0.000 A 
ATOM     34  C   UNL     1      35.171  52.335  44.596  0.00  0.00    +0.000 A 
ATOM     35  C   UNL     1      34.995  53.673  44.950  0.00  0.00    +0.000 A 
ATOM     36  C   UNL     1      37.112  54.246  43.954  0.00  0.00    +0.000 A 
ATOM     37  C   UNL     1      35.961  54.619  44.632  0.00  0.00    +0.000 A 
ENDBRANCH  28  32
ENDBRANCH   1  28
TORSDOF 8
ENDMDL
MODEL 8
REMARK VINA RESULT:      -7.0     25.309     27.489
REMARK  Name = 24777304
REMARK  12 active torsions:
REMARK  status: ('A' for Active; 'I' for Inactive)
REMARK    1  A    between atoms: O_8  and  C_27
REMARK    2  A    between atoms: O_8  and  C_28
REMARK    3  A    between atoms: N_13  and  C_22
REMARK    4  A    between atoms: C_15  and  C_21
REMARK    5  A    between atoms: C_19  and  C_20
REMARK    6  A    between atoms: C_20  and  C_22
REMARK    7  A    between atoms: C_22  and  C_24
REMARK    8  A    between atoms: C_23  and  C_25
REMARK    9  A    between atoms: C_24  and  C_26
REMARK   10  A    between atoms: C_28  and  C_31
REMARK   11  A    between atoms: C_28  and  C_32
REMARK   12  A    between atoms: C_28  and  C_33
REMARK                            x       y       z     vdW  Elec       q    Type
REMARK                         _______ _______ _______ _____ _____    ______ ____
ROOT
ATOM      1  C   UNL     1      37.619  49.319  44.503  0.00  0.00    +0.000 C 
ENDROOT
BRANCH   1   3
ATOM      2  O   UNL     1      40.159  47.941  44.125  0.00  0.00    +0.000 OA
ATOM      3  N   UNL     1      38.624  48.937  45.516  0.00  0.00    +0.000 N 
ATOM      4  C   UNL     1      39.830  48.356  45.227  0.00  0.00    +0.000 C 
ATOM      5  H   UNL     1      38.618  49.397  46.417  0.00  0.00    +0.000 HD
BRANCH   4   6
ATOM      6  O   UNL     1      40.586  48.305  46.356  0.00  0.00    +0.000 OA
BRANCH   6   7
ATOM      7  C   UNL     1      41.770  49.144  46.522  0.00  0.00    +0.000 C 
ATOM      8  C   UNL     1      42.077  49.433  47.997  0.00  0.00    +0.000 C 
ATOM      9  C   UNL     1      42.949  48.336  45.945  0.00  0.00    +0.000 C 
ATOM     10  C   UNL     1      41.639  50.438  45.711  0.00  0.00    +0.000 C 
ENDBRANCH   6   7
ENDBRANCH   4   6
ENDBRANCH   1   3
BRANCH   1  11
ATOM     11  C   UNL     1      36.202  49.012  45.033  0.00  0.00    +0.000 C 
BRANCH  11  21
ATOM     12  O   UNL     1      36.643  47.262  46.628  0.00  0.00    +0.000 OA
ATOM     13  N   UNL     1      35.517  49.081  47.432  0.00  0.00    +0.000 N 
ATOM     14  N   UNL     1      35.629  50.871  49.567  0.00  0.00    +0.000 N 
ATOM     15  N   UNL     1      35.656  49.326  51.121  0.00  0.00    +0.000 NA
ATOM     16  N   UNL     1      35.896  50.537  51.706  0.00  0.00    +0.000 NA
ATOM     17  C   UNL     1      35.472  51.430  48.225  0.00  0.00    +0.000 C 
ATOM     18  C   UNL     1      34.845  50.370  47.289  0.00  0.00    +0.000 C 
ATOM     19  C   UNL     1      35.397  48.476  48.766  0.00  0.00    +0.000 C 
ATOM     20  C   UNL     1      35.558  49.518  49.826  0.00  0.00    +0.000 A 
ATOM     21  C   UNL     1      36.148  48.365  46.415  0.00  0.00    +0.000 C 
ATOM     22  C   UNL     1      34.617  52.702  48.156  0.00  0.00    +0.000 C 
ATOM     23  C   UNL     1      35.954  51.465  50.766  0.00  0.00    +0.000 A 
BRANCH  23  27
ATOM     24  F   UNL     1      37.237  53.339  50.088  0.00  0.00    +0.000 F 
ATOM     25  F   UNL     1      36.879  53.098  52.209  0.00  0.00    +0.000 F 
ATOM     26  F   UNL     1      35.250  53.717  50.893  0.00  0.00    +0.000 F 
ATOM     27  C   UNL     1      36.323  52.889  50.988  0.00  0.00    +0.000 C 
ENDBRANCH  23  27
ENDBRANCH  11  21
ENDBRANCH   1  11
BRANCH   1  28
ATOM     28  C   UNL     1      37.830  50.785  44.029  0.00  0.00    +0.000 C 
BRANCH  28  32
ATOM     29  F   UNL     1      35.964  52.206  42.369  0.00  0.00    +0.000 F 
ATOM     30  F   UNL     1      40.474  50.377  39.929  0.00  0.00    +0.000 F 
ATOM     31  F   UNL     1      38.588  51.759  38.504  0.00  0.00    +0.000 F 
ATOM     32  C   UNL     1      38.012  51.015  42.543  0.00  0.00    +0.000 A 
ATOM     33  C   UNL     1      37.073  51.732  41.788  0.00  0.00    +0.000 A 
ATOM     34  C   UNL     1      39.172  50.559  41.892  0.00  0.00    +0.000 A 
ATOM     35  C   UNL     1      39.360  50.814  40.533  0.00  0.00    +0.000 A 
ATOM     36  C   UNL     1      37.256  51.982  40.431  0.00  0.00    +0.000 A 
ATOM     37  C   UNL     1      38.406  51.519  39.810  0.00  0.00    +0.000 A 
ENDBRANCH  28  32
ENDBRANCH   1  28
TORSDOF 8
ENDMDL
MODEL 9
REMARK VINA RESULT:      -6.6     24.056     26.151
REMARK  Name = 24777304
REMARK  12 active torsions:
REMARK  status: ('A' for Active; 'I' for Inactive)
REMARK    1  A    between atoms: O_8  and  C_27
REMARK    2  A    between atoms: O_8  and  C_28
REMARK    3  A    between atoms: N_13  and  C_22
REMARK    4  A    between atoms: C_15  and  C_21
REMARK    5  A    between atoms: C_19  and  C_20
REMARK    6  A    between atoms: C_20  and  C_22
REMARK    7  A    between atoms: C_22  and  C_24
REMARK    8  A    between atoms: C_23  and  C_25
REMARK    9  A    between atoms: C_24  and  C_26
REMARK   10  A    between atoms: C_28  and  C_31
REMARK   11  A    between atoms: C_28  and  C_32
REMARK   12  A    between atoms: C_28  and  C_33
REMARK                            x       y       z     vdW  Elec       q    Type
REMARK                         _______ _______ _______ _____ _____    ______ ____
ROOT
ATOM      1  C   UNL     1      36.908  50.351  45.928  0.00  0.00    +0.000 C 
ENDROOT
BRANCH   1   3
ATOM      2  O   UNL     1      36.044  50.001  43.168  0.00  0.00    +0.000 OA
ATOM      3  N   UNL     1      37.396  51.033  44.713  0.00  0.00    +0.000 N 
ATOM      4  C   UNL     1      36.868  50.854  43.462  0.00  0.00    +0.000 C 
ATOM      5  H   UNL     1      37.897  51.908  44.804  0.00  0.00    +0.000 HD
BRANCH   4   6
ATOM      6  O   UNL     1      37.416  51.760  42.609  0.00  0.00    +0.000 OA
BRANCH   6   7
ATOM      7  C   UNL     1      38.331  51.354  41.545  0.00  0.00    +0.000 C 
ATOM      8  C   UNL     1      37.594  50.996  40.248  0.00  0.00    +0.000 C 
ATOM      9  C   UNL     1      39.220  52.579  41.258  0.00  0.00    +0.000 C 
ATOM     10  C   UNL     1      39.236  50.209  42.013  0.00  0.00    +0.000 C 
ENDBRANCH   6   7
ENDBRANCH   4   6
ENDBRANCH   1   3
BRANCH   1  11
ATOM     11  C   UNL     1      37.761  50.778  47.143  0.00  0.00    +0.000 C 
BRANCH  11  21
ATOM     12  O   UNL     1      37.704  48.718  48.390  0.00  0.00    +0.000 OA
ATOM     13  N   UNL     1      39.768  49.662  48.120  0.00  0.00    +0.000 N 
ATOM     14  N   UNL     1      42.339  48.945  47.311  0.00  0.00    +0.000 N 
ATOM     15  N   UNL     1      42.521  47.258  48.698  0.00  0.00    +0.000 NA
ATOM     16  N   UNL     1      43.583  47.233  47.840  0.00  0.00    +0.000 NA
ATOM     17  C   UNL     1      41.764  50.159  46.734  0.00  0.00    +0.000 C 
ATOM     18  C   UNL     1      40.674  50.720  47.678  0.00  0.00    +0.000 C 
ATOM     19  C   UNL     1      40.407  48.607  48.920  0.00  0.00    +0.000 C 
ATOM     20  C   UNL     1      41.738  48.250  48.340  0.00  0.00    +0.000 A 
ATOM     21  C   UNL     1      38.387  49.632  47.936  0.00  0.00    +0.000 C 
ATOM     22  C   UNL     1      42.776  51.275  46.448  0.00  0.00    +0.000 C 
ATOM     23  C   UNL     1      43.443  48.205  46.954  0.00  0.00    +0.000 A 
BRANCH  23  27
ATOM     24  F   UNL     1      43.630  48.684  44.640  0.00  0.00    +0.000 F 
ATOM     25  F   UNL     1      45.102  47.347  45.498  0.00  0.00    +0.000 F 
ATOM     26  F   UNL     1      45.167  49.481  45.961  0.00  0.00    +0.000 F 
ATOM     27  C   UNL     1      44.328  48.428  45.778  0.00  0.00    +0.000 C 
ENDBRANCH  23  27
ENDBRANCH  11  21
ENDBRANCH   1  11
BRANCH   1  28
ATOM     28  C   UNL     1      35.377  50.552  46.109  0.00  0.00    +0.000 C 
BRANCH  28  32
ATOM     29  F   UNL     1      34.872  51.306  48.835  0.00  0.00    +0.000 F 
ATOM     30  F   UNL     1      34.166  55.181  45.078  0.00  0.00    +0.000 F 
ATOM     31  F   UNL     1      33.736  55.723  47.727  0.00  0.00    +0.000 F 
ATOM     32  C   UNL     1      34.903  51.924  46.542  0.00  0.00    +0.000 A 
ATOM     33  C   UNL     1      34.689  52.237  47.892  0.00  0.00    +0.000 A 
ATOM     34  C   UNL     1      34.720  52.943  45.591  0.00  0.00    +0.000 A 
ATOM     35  C   UNL     1      34.330  54.219  45.997  0.00  0.00    +0.000 A 
ATOM     36  C   UNL     1      34.293  53.508  48.298  0.00  0.00    +0.000 A 
ATOM     37  C   UNL     1      34.116  54.496  47.341  0.00  0.00    +0.000 A 
ENDBRANCH  28  32
ENDBRANCH   1  28
TORSDOF 8
ENDMDL
