MODEL 1
REMARK VINA RESULT:      -7.9      0.000      0.000
REMARK  Name = 20628255
REMARK  6 active torsions:
REMARK  status: ('A' for Active; 'I' for Inactive)
REMARK    1  A    between atoms: N_6  and  C_13
REMARK    2  A    between atoms: C_12  and  C_13
REMARK    3  A    between atoms: C_12  and  C_14
REMARK    4  A    between atoms: C_13  and  C_15
REMARK    5  A    between atoms: C_15  and  C_17
REMARK    6  A    between atoms: C_16  and  C_18
REMARK                            x       y       z     vdW  Elec       q    Type
REMARK                         _______ _______ _______ _____ _____    ______ ____
ROOT
ATOM      1  C   UNL     1      46.991  73.438  49.010  0.00  0.00    +0.000 C 
ENDROOT
BRANCH   1  11
ATOM      2  O   UNL     1      46.088  72.434  50.974  0.00  0.00    +0.000 OA
ATOM      3  N   UNL     1      47.680  71.197  49.901  0.00  0.00    +0.000 N 
ATOM      4  N   UNL     1      49.871  69.873  50.926  0.00  0.00    +0.000 N 
ATOM      5  N   UNL     1      51.219  70.364  49.281  0.00  0.00    +0.000 NA
ATOM      6  N   UNL     1      51.951  69.793  50.297  0.00  0.00    +0.000 NA
ATOM      7  C   UNL     1      47.436  70.030  50.758  0.00  0.00    +0.000 C 
ATOM      8  C   UNL     1      48.633  69.767  51.669  0.00  0.00    +0.000 C 
ATOM      9  C   UNL     1      48.809  71.049  48.971  0.00  0.00    +0.000 C 
ATOM     10  C   UNL     1      49.970  70.444  49.684  0.00  0.00    +0.000 A 
ATOM     11  C   UNL     1      46.896  72.331  50.050  0.00  0.00    +0.000 C 
ATOM     12  C   UNL     1      51.139  69.535  51.303  0.00  0.00    +0.000 A 
ATOM     13  C   UNL     1      51.530  69.006  52.628  0.00  0.00    +0.000 C 
ENDBRANCH   1  11
BRANCH   1  14
ATOM     14  C   UNL     1      46.355  74.779  49.424  0.00  0.00    +0.000 C 
BRANCH  14  15
ATOM     15  N   UNL     1      44.893  74.564  49.444  0.00  0.00    +0.000 NA
ATOM     16  H   UNL     1      44.599  74.309  50.387  0.00  0.00    +0.000 HD
ATOM     17  H   UNL     1      44.420  75.446  49.238  0.00  0.00    +0.000 HD
ENDBRANCH  14  15
BRANCH  14  18
ATOM     18  C   UNL     1      46.727  75.939  48.469  0.00  0.00    +0.000 C 
BRANCH  18  20
ATOM     19  F   UNL     1      45.262  77.650  50.251  0.00  0.00    +0.000 F 
ATOM     20  C   UNL     1      47.288  77.194  49.107  0.00  0.00    +0.000 A 
ATOM     21  C   UNL     1      46.533  77.981  49.982  0.00  0.00    +0.000 A 
ATOM     22  C   UNL     1      48.616  77.579  48.860  0.00  0.00    +0.000 A 
ATOM     23  C   UNL     1      47.076  79.108  50.599  0.00  0.00    +0.000 A 
ATOM     24  C   UNL     1      49.169  78.705  49.476  0.00  0.00    +0.000 A 
ATOM     25  C   UNL     1      48.400  79.468  50.349  0.00  0.00    +0.000 A 
ENDBRANCH  18  20
ENDBRANCH  14  18
ENDBRANCH   1  14
TORSDOF 5
ENDMDL
MODEL 2
REMARK VINA RESULT:      -7.5      2.609      4.114
REMARK  Name = 20628255
REMARK  6 active torsions:
REMARK  status: ('A' for Active; 'I' for Inactive)
REMARK    1  A    between atoms: N_6  and  C_13
REMARK    2  A    between atoms: C_12  and  C_13
REMARK    3  A    between atoms: C_12  and  C_14
REMARK    4  A    between atoms: C_13  and  C_15
REMARK    5  A    between atoms: C_15  and  C_17
REMARK    6  A    between atoms: C_16  and  C_18
REMARK                            x       y       z     vdW  Elec       q    Type
REMARK                         _______ _______ _______ _____ _____    ______ ____
ROOT
ATOM      1  C   UNL     1      44.986  77.183  51.001  0.00  0.00    +0.000 C 
ENDROOT
BRANCH   1  11
ATOM      2  O   UNL     1      44.213  75.791  52.775  0.00  0.00    +0.000 OA
ATOM      3  N   UNL     1      44.720  74.694  50.838  0.00  0.00    +0.000 N 
ATOM      4  N   UNL     1      46.195  72.396  50.448  0.00  0.00    +0.000 N 
ATOM      5  N   UNL     1      47.178  73.069  48.620  0.00  0.00    +0.000 NA
ATOM      6  N   UNL     1      47.771  71.898  49.035  0.00  0.00    +0.000 NA
ATOM      7  C   UNL     1      44.165  73.430  51.338  0.00  0.00    +0.000 C 
ATOM      8  C   UNL     1      45.272  72.402  51.564  0.00  0.00    +0.000 C 
ATOM      9  C   UNL     1      45.387  74.596  49.531  0.00  0.00    +0.000 C 
ATOM     10  C   UNL     1      46.253  73.384  49.499  0.00  0.00    +0.000 A 
ATOM     11  C   UNL     1      44.629  75.838  51.617  0.00  0.00    +0.000 C 
ATOM     12  C   UNL     1      47.199  71.517  50.161  0.00  0.00    +0.000 A 
ATOM     13  C   UNL     1      47.596  70.361  50.995  0.00  0.00    +0.000 C 
ENDBRANCH   1  11
BRANCH   1  14
ATOM     14  C   UNL     1      46.432  77.650  51.251  0.00  0.00    +0.000 C 
BRANCH  14  15
ATOM     15  N   UNL     1      46.587  77.778  52.716  0.00  0.00    +0.000 NA
ATOM     16  H   UNL     1      46.042  77.052  53.180  0.00  0.00    +0.000 HD
ATOM     17  H   UNL     1      47.560  77.595  52.969  0.00  0.00    +0.000 HD
ENDBRANCH  14  15
BRANCH  14  18
ATOM     18  C   UNL     1      46.760  78.989  50.546  0.00  0.00    +0.000 C 
BRANCH  18  20
ATOM     19  F   UNL     1      48.955  79.954  52.128  0.00  0.00    +0.000 F 
ATOM     20  C   UNL     1      48.177  79.161  50.034  0.00  0.00    +0.000 A 
ATOM     21  C   UNL     1      49.211  79.619  50.856  0.00  0.00    +0.000 A 
ATOM     22  C   UNL     1      48.495  78.818  48.709  0.00  0.00    +0.000 A 
ATOM     23  C   UNL     1      50.519  79.728  50.384  0.00  0.00    +0.000 A 
ATOM     24  C   UNL     1      49.803  78.922  48.230  0.00  0.00    +0.000 A 
ATOM     25  C   UNL     1      50.817  79.374  49.069  0.00  0.00    +0.000 A 
ENDBRANCH  18  20
ENDBRANCH  14  18
ENDBRANCH   1  14
TORSDOF 5
ENDMDL
MODEL 3
REMARK VINA RESULT:      -7.5     21.317     23.196
REMARK  Name = 20628255
REMARK  6 active torsions:
REMARK  status: ('A' for Active; 'I' for Inactive)
REMARK    1  A    between atoms: N_6  and  C_13
REMARK    2  A    between atoms: C_12  and  C_13
REMARK    3  A    between atoms: C_12  and  C_14
REMARK    4  A    between atoms: C_13  and  C_15
REMARK    5  A    between atoms: C_15  and  C_17
REMARK    6  A    between atoms: C_16  and  C_18
REMARK                            x       y       z     vdW  Elec       q    Type
REMARK                         _______ _______ _______ _____ _____    ______ ____
ROOT
ATOM      1  C   UNL     1      29.384  65.157  38.766  0.00  0.00    +0.000 C 
ENDROOT
BRANCH   1  11
ATOM      2  O   UNL     1      30.641  67.003  39.598  0.00  0.00    +0.000 OA
ATOM      3  N   UNL     1      29.762  65.632  41.199  0.00  0.00    +0.000 N 
ATOM      4  N   UNL     1      30.951  64.552  43.440  0.00  0.00    +0.000 N 
ATOM      5  N   UNL     1      29.969  62.608  43.300  0.00  0.00    +0.000 NA
ATOM      6  N   UNL     1      30.946  62.540  44.266  0.00  0.00    +0.000 NA
ATOM      7  C   UNL     1      30.147  66.549  42.279  0.00  0.00    +0.000 C 
ATOM      8  C   UNL     1      31.249  65.937  43.143  0.00  0.00    +0.000 C 
ATOM      9  C   UNL     1      29.191  64.355  41.652  0.00  0.00    +0.000 C 
ATOM     10  C   UNL     1      30.003  63.815  42.779  0.00  0.00    +0.000 A 
ATOM     11  C   UNL     1      29.996  65.993  39.880  0.00  0.00    +0.000 C 
ATOM     12  C   UNL     1      31.563  63.705  44.319  0.00  0.00    +0.000 A 
ATOM     13  C   UNL     1      32.738  64.034  45.155  0.00  0.00    +0.000 C 
ENDBRANCH   1  11
BRANCH   1  14
ATOM     14  C   UNL     1      30.252  63.980  38.281  0.00  0.00    +0.000 C 
BRANCH  14  15
ATOM     15  N   UNL     1      31.659  64.368  38.517  0.00  0.00    +0.000 NA
ATOM     16  H   UNL     1      31.773  65.364  38.329  0.00  0.00    +0.000 HD
ATOM     17  H   UNL     1      31.879  64.248  39.507  0.00  0.00    +0.000 HD
ENDBRANCH  14  15
BRANCH  14  18
ATOM     18  C   UNL     1      30.020  63.638  36.789  0.00  0.00    +0.000 C 
BRANCH  18  20
ATOM     19  F   UNL     1      31.415  65.882  35.663  0.00  0.00    +0.000 F 
ATOM     20  C   UNL     1      29.372  64.711  35.937  0.00  0.00    +0.000 A 
ATOM     21  C   UNL     1      30.105  65.774  35.400  0.00  0.00    +0.000 A 
ATOM     22  C   UNL     1      28.003  64.637  35.630  0.00  0.00    +0.000 A 
ATOM     23  C   UNL     1      29.505  66.729  34.579  0.00  0.00    +0.000 A 
ATOM     24  C   UNL     1      27.395  65.588  34.806  0.00  0.00    +0.000 A 
ATOM     25  C   UNL     1      28.147  66.633  34.278  0.00  0.00    +0.000 A 
ENDBRANCH  18  20
ENDBRANCH  14  18
ENDBRANCH   1  14
TORSDOF 5
ENDMDL
MODEL 4
REMARK VINA RESULT:      -7.3     25.504     27.518
REMARK  Name = 20628255
REMARK  6 active torsions:
REMARK  status: ('A' for Active; 'I' for Inactive)
REMARK    1  A    between atoms: N_6  and  C_13
REMARK    2  A    between atoms: C_12  and  C_13
REMARK    3  A    between atoms: C_12  and  C_14
REMARK    4  A    between atoms: C_13  and  C_15
REMARK    5  A    between atoms: C_15  and  C_17
REMARK    6  A    between atoms: C_16  and  C_18
REMARK                            x       y       z     vdW  Elec       q    Type
REMARK                         _______ _______ _______ _____ _____    ______ ____
ROOT
ATOM      1  C   UNL     1      48.750  52.680  34.786  0.00  0.00    +0.000 C 
ENDROOT
BRANCH   1  11
ATOM      2  O   UNL     1      50.103  52.961  36.729  0.00  0.00    +0.000 OA
ATOM      3  N   UNL     1      50.048  50.839  35.887  0.00  0.00    +0.000 N 
ATOM      4  N   UNL     1      52.117  49.081  35.403  0.00  0.00    +0.000 N 
ATOM      5  N   UNL     1      51.302  48.283  33.543  0.00  0.00    +0.000 NA
ATOM      6  N   UNL     1      52.590  47.821  33.695  0.00  0.00    +0.000 NA
ATOM      7  C   UNL     1      50.772  50.298  37.044  0.00  0.00    +0.000 C 
ATOM      8  C   UNL     1      52.170  49.831  36.640  0.00  0.00    +0.000 C 
ATOM      9  C   UNL     1      49.802  49.869  34.810  0.00  0.00    +0.000 C 
ATOM     10  C   UNL     1      51.037  49.074  34.559  0.00  0.00    +0.000 A 
ATOM     11  C   UNL     1      49.701  52.181  35.864  0.00  0.00    +0.000 C 
ATOM     12  C   UNL     1      53.091  48.338  34.799  0.00  0.00    +0.000 A 
ATOM     13  C   UNL     1      54.478  48.177  35.289  0.00  0.00    +0.000 C 
ENDBRANCH   1  11
BRANCH   1  14
ATOM     14  C   UNL     1      47.314  52.966  35.264  0.00  0.00    +0.000 C 
BRANCH  14  15
ATOM     15  N   UNL     1      47.418  53.993  36.323  0.00  0.00    +0.000 NA
ATOM     16  H   UNL     1      47.791  54.855  35.925  0.00  0.00    +0.000 HD
ATOM     17  H   UNL     1      46.482  54.227  36.658  0.00  0.00    +0.000 HD
ENDBRANCH  14  15
BRANCH  14  18
ATOM     18  C   UNL     1      46.597  51.701  35.796  0.00  0.00    +0.000 C 
BRANCH  18  20
ATOM     19  F   UNL     1      45.493  52.037  33.165  0.00  0.00    +0.000 F 
ATOM     20  C   UNL     1      45.126  51.559  35.458  0.00  0.00    +0.000 A 
ATOM     21  C   UNL     1      44.646  51.718  34.154  0.00  0.00    +0.000 A 
ATOM     22  C   UNL     1      44.201  51.220  36.459  0.00  0.00    +0.000 A 
ATOM     23  C   UNL     1      43.297  51.539  33.849  0.00  0.00    +0.000 A 
ATOM     24  C   UNL     1      42.848  51.036  36.161  0.00  0.00    +0.000 A 
ATOM     25  C   UNL     1      42.396  51.193  34.855  0.00  0.00    +0.000 A 
ENDBRANCH  18  20
ENDBRANCH  14  18
ENDBRANCH   1  14
TORSDOF 5
ENDMDL
MODEL 5
REMARK VINA RESULT:      -7.0     11.603     13.598
REMARK  Name = 20628255
REMARK  6 active torsions:
REMARK  status: ('A' for Active; 'I' for Inactive)
REMARK    1  A    between atoms: N_6  and  C_13
REMARK    2  A    between atoms: C_12  and  C_13
REMARK    3  A    between atoms: C_12  and  C_14
REMARK    4  A    between atoms: C_13  and  C_15
REMARK    5  A    between atoms: C_15  and  C_17
REMARK    6  A    between atoms: C_16  and  C_18
REMARK                            x       y       z     vdW  Elec       q    Type
REMARK                         _______ _______ _______ _____ _____    ______ ____
ROOT
ATOM      1  C   UNL     1      55.255  70.325  38.577  0.00  0.00    +0.000 C 
ENDROOT
BRANCH   1  11
ATOM      2  O   UNL     1      54.447  71.700  36.804  0.00  0.00    +0.000 OA
ATOM      3  N   UNL     1      52.830  70.633  38.014  0.00  0.00    +0.000 N 
ATOM      4  N   UNL     1      50.486  71.622  39.078  0.00  0.00    +0.000 N 
ATOM      5  N   UNL     1      50.585  70.481  40.936  0.00  0.00    +0.000 NA
ATOM      6  N   UNL     1      49.569  71.404  41.038  0.00  0.00    +0.000 NA
ATOM      7  C   UNL     1      51.775  71.048  37.081  0.00  0.00    +0.000 C 
ATOM      8  C   UNL     1      50.831  72.052  37.739  0.00  0.00    +0.000 C 
ATOM      9  C   UNL     1      52.347  69.933  39.214  0.00  0.00    +0.000 C 
ATOM     10  C   UNL     1      51.159  70.644  39.764  0.00  0.00    +0.000 A 
ATOM     11  C   UNL     1      54.151  70.957  37.741  0.00  0.00    +0.000 C 
ATOM     12  C   UNL     1      49.540  72.117  39.929  0.00  0.00    +0.000 A 
ATOM     13  C   UNL     1      48.663  73.277  39.659  0.00  0.00    +0.000 C 
ENDBRANCH   1  11
BRANCH   1  14
ATOM     14  C   UNL     1      55.649  71.115  39.839  0.00  0.00    +0.000 C 
BRANCH  14  15
ATOM     15  N   UNL     1      55.827  72.521  39.419  0.00  0.00    +0.000 NA
ATOM     16  H   UNL     1      55.900  72.566  38.403  0.00  0.00    +0.000 HD
ATOM     17  H   UNL     1      54.989  73.053  39.658  0.00  0.00    +0.000 HD
ENDBRANCH  14  15
BRANCH  14  18
ATOM     18  C   UNL     1      56.938  70.574  40.506  0.00  0.00    +0.000 C 
BRANCH  18  20
ATOM     19  F   UNL     1      59.489  71.809  40.043  0.00  0.00    +0.000 F 
ATOM     20  C   UNL     1      57.635  71.496  41.487  0.00  0.00    +0.000 A 
ATOM     21  C   UNL     1      58.872  72.083  41.201  0.00  0.00    +0.000 A 
ATOM     22  C   UNL     1      57.025  71.816  42.711  0.00  0.00    +0.000 A 
ATOM     23  C   UNL     1      59.481  72.966  42.093  0.00  0.00    +0.000 A 
ATOM     24  C   UNL     1      57.627  72.702  43.609  0.00  0.00    +0.000 A 
ATOM     25  C   UNL     1      58.854  73.279  43.299  0.00  0.00    +0.000 A 
ENDBRANCH  18  20
ENDBRANCH  14  18
ENDBRANCH   1  14
TORSDOF 5
ENDMDL
MODEL 6
REMARK VINA RESULT:      -6.9     22.743     24.664
REMARK  Name = 20628255
REMARK  6 active torsions:
REMARK  status: ('A' for Active; 'I' for Inactive)
REMARK    1  A    between atoms: N_6  and  C_13
REMARK    2  A    between atoms: C_12  and  C_13
REMARK    3  A    between atoms: C_12  and  C_14
REMARK    4  A    between atoms: C_13  and  C_15
REMARK    5  A    between atoms: C_15  and  C_17
REMARK    6  A    between atoms: C_16  and  C_18
REMARK                            x       y       z     vdW  Elec       q    Type
REMARK                         _______ _______ _______ _____ _____    ______ ____
ROOT
ATOM      1  C   UNL     1      29.465  64.889  38.966  0.00  0.00    +0.000 C 
ENDROOT
BRANCH   1  11
ATOM      2  O   UNL     1      28.919  63.478  40.810  0.00  0.00    +0.000 OA
ATOM      3  N   UNL     1      28.738  65.718  41.219  0.00  0.00    +0.000 N 
ATOM      4  N   UNL     1      26.705  67.128  42.437  0.00  0.00    +0.000 N 
ATOM      5  N   UNL     1      26.802  68.854  41.106  0.00  0.00    +0.000 NA
ATOM      6  N   UNL     1      25.681  68.969  41.896  0.00  0.00    +0.000 NA
ATOM      7  C   UNL     1      28.516  65.498  42.654  0.00  0.00    +0.000 C 
ATOM      8  C   UNL     1      27.087  65.871  43.045  0.00  0.00    +0.000 C 
ATOM      9  C   UNL     1      28.604  67.117  40.785  0.00  0.00    +0.000 C 
ATOM     10  C   UNL     1      27.395  67.722  41.412  0.00  0.00    +0.000 A 
ATOM     11  C   UNL     1      29.001  64.635  40.394  0.00  0.00    +0.000 C 
ATOM     12  C   UNL     1      25.606  67.904  42.671  0.00  0.00    +0.000 A 
ATOM     13  C   UNL     1      24.507  67.579  43.605  0.00  0.00    +0.000 C 
ENDBRANCH   1  11
BRANCH   1  14
ATOM     14  C   UNL     1      30.521  63.900  38.439  0.00  0.00    +0.000 C 
BRANCH  14  15
ATOM     15  N   UNL     1      31.839  64.531  38.662  0.00  0.00    +0.000 NA
ATOM     16  H   UNL     1      32.534  63.810  38.854  0.00  0.00    +0.000 HD
ATOM     17  H   UNL     1      32.145  64.986  37.800  0.00  0.00    +0.000 HD
ENDBRANCH  14  15
BRANCH  14  18
ATOM     18  C   UNL     1      30.325  63.554  36.942  0.00  0.00    +0.000 C 
BRANCH  18  20
ATOM     19  F   UNL     1      31.399  65.951  35.779  0.00  0.00    +0.000 F 
ATOM     20  C   UNL     1      29.523  64.540  36.115  0.00  0.00    +0.000 A 
ATOM     21  C   UNL     1      30.104  65.684  35.558  0.00  0.00    +0.000 A 
ATOM     22  C   UNL     1      28.165  64.300  35.852  0.00  0.00    +0.000 A 
ATOM     23  C   UNL     1      29.366  66.558  34.760  0.00  0.00    +0.000 A 
ATOM     24  C   UNL     1      27.419  65.170  35.052  0.00  0.00    +0.000 A 
ATOM     25  C   UNL     1      28.020  66.298  34.503  0.00  0.00    +0.000 A 
ENDBRANCH  18  20
ENDBRANCH  14  18
ENDBRANCH   1  14
TORSDOF 5
ENDMDL
MODEL 7
REMARK VINA RESULT:      -6.8     11.219     13.079
REMARK  Name = 20628255
REMARK  6 active torsions:
REMARK  status: ('A' for Active; 'I' for Inactive)
REMARK    1  A    between atoms: N_6  and  C_13
REMARK    2  A    between atoms: C_12  and  C_13
REMARK    3  A    between atoms: C_12  and  C_14
REMARK    4  A    between atoms: C_13  and  C_15
REMARK    5  A    between atoms: C_15  and  C_17
REMARK    6  A    between atoms: C_16  and  C_18
REMARK                            x       y       z     vdW  Elec       q    Type
REMARK                         _______ _______ _______ _____ _____    ______ ____
ROOT
ATOM      1  C   UNL     1      55.024  70.041  41.149  0.00  0.00    +0.000 C 
ENDROOT
BRANCH   1  11
ATOM      2  O   UNL     1      55.281  71.147  39.052  0.00  0.00    +0.000 OA
ATOM      3  N   UNL     1      53.206  70.276  39.437  0.00  0.00    +0.000 N 
ATOM      4  N   UNL     1      50.721  71.419  39.084  0.00  0.00    +0.000 N 
ATOM      5  N   UNL     1      49.823  70.560  40.878  0.00  0.00    +0.000 NA
ATOM      6  N   UNL     1      48.957  71.493  40.354  0.00  0.00    +0.000 NA
ATOM      7  C   UNL     1      52.769  70.555  38.063  0.00  0.00    +0.000 C 
ATOM      8  C   UNL     1      51.703  71.649  38.045  0.00  0.00    +0.000 C 
ATOM      9  C   UNL     1      52.152  69.760  40.323  0.00  0.00    +0.000 C 
ATOM     10  C   UNL     1      50.902  70.548  40.127  0.00  0.00    +0.000 A 
ATOM     11  C   UNL     1      54.514  70.550  39.808  0.00  0.00    +0.000 C 
ATOM     12  C   UNL     1      49.522  72.037  39.294  0.00  0.00    +0.000 A 
ATOM     13  C   UNL     1      48.976  73.151  38.487  0.00  0.00    +0.000 C 
ENDBRANCH   1  11
BRANCH   1  14
ATOM     14  C   UNL     1      55.124  71.108  42.256  0.00  0.00    +0.000 C 
BRANCH  14  15
ATOM     15  N   UNL     1      55.178  72.419  41.575  0.00  0.00    +0.000 NA
ATOM     16  H   UNL     1      55.551  72.299  40.634  0.00  0.00    +0.000 HD
ATOM     17  H   UNL     1      54.228  72.773  41.451  0.00  0.00    +0.000 HD
ENDBRANCH  14  15
BRANCH  14  18
ATOM     18  C   UNL     1      56.360  70.912  43.167  0.00  0.00    +0.000 C 
BRANCH  18  20
ATOM     19  F   UNL     1      57.402  73.468  43.962  0.00  0.00    +0.000 F 
ATOM     20  C   UNL     1      57.670  71.495  42.675  0.00  0.00    +0.000 A 
ATOM     21  C   UNL     1      58.137  72.740  43.109  0.00  0.00    +0.000 A 
ATOM     22  C   UNL     1      58.476  70.767  41.785  0.00  0.00    +0.000 A 
ATOM     23  C   UNL     1      59.366  73.244  42.683  0.00  0.00    +0.000 A 
ATOM     24  C   UNL     1      59.710  71.264  41.355  0.00  0.00    +0.000 A 
ATOM     25  C   UNL     1      60.156  72.501  41.807  0.00  0.00    +0.000 A 
ENDBRANCH  18  20
ENDBRANCH  14  18
ENDBRANCH   1  14
TORSDOF 5
ENDMDL
MODEL 8
REMARK VINA RESULT:      -6.6     12.661     14.240
REMARK  Name = 20628255
REMARK  6 active torsions:
REMARK  status: ('A' for Active; 'I' for Inactive)
REMARK    1  A    between atoms: N_6  and  C_13
REMARK    2  A    between atoms: C_12  and  C_13
REMARK    3  A    between atoms: C_12  and  C_14
REMARK    4  A    between atoms: C_13  and  C_15
REMARK    5  A    between atoms: C_15  and  C_17
REMARK    6  A    between atoms: C_16  and  C_18
REMARK                            x       y       z     vdW  Elec       q    Type
REMARK                         _______ _______ _______ _____ _____    ______ ____
ROOT
ATOM      1  C   UNL     1      53.894  71.745  37.465  0.00  0.00    +0.000 C 
ENDROOT
BRANCH   1  11
ATOM      2  O   UNL     1      55.080  70.389  35.904  0.00  0.00    +0.000 OA
ATOM      3  N   UNL     1      56.388  71.481  37.425  0.00  0.00    +0.000 N 
ATOM      4  N   UNL     1      58.473  70.531  38.960  0.00  0.00    +0.000 N 
ATOM      5  N   UNL     1      57.966  71.666  40.753  0.00  0.00    +0.000 NA
ATOM      6  N   UNL     1      58.953  70.761  41.068  0.00  0.00    +0.000 NA
ATOM      7  C   UNL     1      57.622  71.086  36.735  0.00  0.00    +0.000 C 
ATOM      8  C   UNL     1      58.424  70.098  37.579  0.00  0.00    +0.000 C 
ATOM      9  C   UNL     1      56.596  72.187  38.698  0.00  0.00    +0.000 C 
ATOM     10  C   UNL     1      57.654  71.496  39.487  0.00  0.00    +0.000 A 
ATOM     11  C   UNL     1      55.160  71.134  36.881  0.00  0.00    +0.000 C 
ATOM     12  C   UNL     1      59.227  70.051  39.992  0.00  0.00    +0.000 A 
ATOM     13  C   UNL     1      60.161  68.906  39.914  0.00  0.00    +0.000 C 
ENDBRANCH   1  11
BRANCH   1  14
ATOM     14  C   UNL     1      52.906  70.736  38.079  0.00  0.00    +0.000 C 
BRANCH  14  15
ATOM     15  N   UNL     1      53.606  69.434  38.124  0.00  0.00    +0.000 NA
ATOM     16  H   UNL     1      53.826  69.134  37.174  0.00  0.00    +0.000 HD
ATOM     17  H   UNL     1      54.507  69.552  38.591  0.00  0.00    +0.000 HD
ENDBRANCH  14  15
BRANCH  14  18
ATOM     18  C   UNL     1      51.587  70.623  37.277  0.00  0.00    +0.000 C 
BRANCH  18  20
ATOM     19  F   UNL     1      51.063  73.433  37.560  0.00  0.00    +0.000 F 
ATOM     20  C   UNL     1      50.344  71.203  37.923  0.00  0.00    +0.000 A 
ATOM     21  C   UNL     1      50.134  72.582  38.018  0.00  0.00    +0.000 A 
ATOM     22  C   UNL     1      49.341  70.351  38.412  0.00  0.00    +0.000 A 
ATOM     23  C   UNL     1      48.965  73.102  38.574  0.00  0.00    +0.000 A 
ATOM     24  C   UNL     1      48.165  70.864  38.968  0.00  0.00    +0.000 A 
ATOM     25  C   UNL     1      47.976  72.240  39.046  0.00  0.00    +0.000 A 
ENDBRANCH  18  20
ENDBRANCH  14  18
ENDBRANCH   1  14
TORSDOF 5
ENDMDL
MODEL 9
REMARK VINA RESULT:      -6.2     12.920     15.037
REMARK  Name = 20628255
REMARK  6 active torsions:
REMARK  status: ('A' for Active; 'I' for Inactive)
REMARK    1  A    between atoms: N_6  and  C_13
REMARK    2  A    between atoms: C_12  and  C_13
REMARK    3  A    between atoms: C_12  and  C_14
REMARK    4  A    between atoms: C_13  and  C_15
REMARK    5  A    between atoms: C_15  and  C_17
REMARK    6  A    between atoms: C_16  and  C_18
REMARK                            x       y       z     vdW  Elec       q    Type
REMARK                         _______ _______ _______ _____ _____    ______ ____
ROOT
ATOM      1  C   UNL     1      58.352  66.876  41.416  0.00  0.00    +0.000 C 
ENDROOT
BRANCH   1  11
ATOM      2  O   UNL     1      60.373  66.394  40.247  0.00  0.00    +0.000 OA
ATOM      3  N   UNL     1      60.051  65.189  42.161  0.00  0.00    +0.000 N 
ATOM      4  N   UNL     1      60.340  62.484  42.609  0.00  0.00    +0.000 N 
ATOM      5  N   UNL     1      58.608  62.289  43.922  0.00  0.00    +0.000 NA
ATOM      6  N   UNL     1      59.075  61.030  43.617  0.00  0.00    +0.000 NA
ATOM      7  C   UNL     1      61.406  64.626  42.104  0.00  0.00    +0.000 C 
ATOM      8  C   UNL     1      61.360  63.128  41.808  0.00  0.00    +0.000 C 
ATOM      9  C   UNL     1      59.204  64.642  43.230  0.00  0.00    +0.000 C 
ATOM     10  C   UNL     1      59.354  63.160  43.279  0.00  0.00    +0.000 A 
ATOM     11  C   UNL     1      59.659  66.124  41.214  0.00  0.00    +0.000 C 
ATOM     12  C   UNL     1      60.097  61.153  42.792  0.00  0.00    +0.000 A 
ATOM     13  C   UNL     1      60.833  60.046  42.143  0.00  0.00    +0.000 C 
ENDBRANCH   1  11
BRANCH   1  14
ATOM     14  C   UNL     1      58.485  68.233  42.134  0.00  0.00    +0.000 C 
BRANCH  14  15
ATOM     15  N   UNL     1      58.104  68.004  43.544  0.00  0.00    +0.000 NA
ATOM     16  H   UNL     1      58.576  67.170  43.892  0.00  0.00    +0.000 HD
ATOM     17  H   UNL     1      58.450  68.775  44.116  0.00  0.00    +0.000 HD
ENDBRANCH  14  15
BRANCH  14  18
ATOM     18  C   UNL     1      57.602  69.336  41.499  0.00  0.00    +0.000 C 
BRANCH  18  20
ATOM     19  F   UNL     1      59.595  71.169  42.458  0.00  0.00    +0.000 F 
ATOM     20  C   UNL     1      57.309  70.551  42.357  0.00  0.00    +0.000 A 
ATOM     21  C   UNL     1      58.319  71.420  42.782  0.00  0.00    +0.000 A 
ATOM     22  C   UNL     1      55.986  70.857  42.718  0.00  0.00    +0.000 A 
ATOM     23  C   UNL     1      58.029  72.560  43.532  0.00  0.00    +0.000 A 
ATOM     24  C   UNL     1      55.687  71.999  43.467  0.00  0.00    +0.000 A 
ATOM     25  C   UNL     1      56.709  72.852  43.872  0.00  0.00    +0.000 A 
ENDBRANCH  18  20
ENDBRANCH  14  18
ENDBRANCH   1  14
TORSDOF 5
ENDMDL
