MODEL 1
REMARK VINA RESULT:      -8.1      0.000      0.000
REMARK  Name = 11741505
REMARK  9 active torsions:
REMARK  status: ('A' for Active; 'I' for Inactive)
REMARK    1  A    between atoms: O_4  and  C_19
REMARK    2  A    between atoms: O_4  and  C_21
REMARK    3  A    between atoms: N_9  and  C_16
REMARK    4  A    between atoms: C_15  and  C_16
REMARK    5  A    between atoms: C_15  and  C_17
REMARK    6  A    between atoms: C_16  and  C_18
REMARK    7  A    between atoms: C_18  and  C_20
REMARK    8  A    between atoms: C_21  and  C_24
REMARK    9  A    between atoms: C_21  and  C_25
REMARK                            x       y       z     vdW  Elec       q    Type
REMARK                         _______ _______ _______ _____ _____    ______ ____
ROOT
ATOM      1  C   UNL     1      47.141  73.822  48.970  0.00  0.00    +0.000 C 
ENDROOT
BRANCH   1  11
ATOM      2  O   UNL     1      46.064  72.616  50.731  0.00  0.00    +0.000 OA
ATOM      3  N   UNL     1      47.413  71.358  49.383  0.00  0.00    +0.000 N 
ATOM      4  N   UNL     1      49.202  69.597  50.542  0.00  0.00    +0.000 N 
ATOM      5  N   UNL     1      50.902  70.144  49.282  0.00  0.00    +0.000 NA
ATOM      6  N   UNL     1      51.331  69.250  50.241  0.00  0.00    +0.000 NA
ATOM      7  C   UNL     1      46.905  70.106  49.961  0.00  0.00    +0.000 C 
ATOM      8  C   UNL     1      47.849  69.610  51.057  0.00  0.00    +0.000 C 
ATOM      9  C   UNL     1      48.690  71.215  48.673  0.00  0.00    +0.000 C 
ATOM     10  C   UNL     1      49.616  70.352  49.470  0.00  0.00    +0.000 A 
ATOM     11  C   UNL     1      46.858  72.566  49.789  0.00  0.00    +0.000 C 
ATOM     12  C   UNL     1      50.298  68.933  50.996  0.00  0.00    +0.000 A 
BRANCH  12  13
ATOM     13  O   UNL     1      50.294  68.114  52.045  0.00  0.00    +0.000 OA
BRANCH  13  14
ATOM     14  C   UNL     1      50.961  68.624  53.213  0.00  0.00    +0.000 C 
ATOM     15  C   UNL     1      49.980  69.470  54.025  0.00  0.00    +0.000 C 
ATOM     16  C   UNL     1      51.470  67.444  54.040  0.00  0.00    +0.000 C 
ENDBRANCH  13  14
ENDBRANCH  12  13
ENDBRANCH   1  11
BRANCH   1  17
ATOM     17  C   UNL     1      46.467  75.124  49.457  0.00  0.00    +0.000 C 
BRANCH  17  18
ATOM     18  N   UNL     1      45.011  74.961  49.258  0.00  0.00    +0.000 NA
ATOM     19  H   UNL     1      44.563  74.748  50.150  0.00  0.00    +0.000 HD
ATOM     20  H   UNL     1      44.606  75.848  48.954  0.00  0.00    +0.000 HD
ENDBRANCH  17  18
BRANCH  17  21
ATOM     21  C   UNL     1      46.970  76.355  48.671  0.00  0.00    +0.000 C 
BRANCH  21  25
ATOM     22  F   UNL     1      48.080  78.696  47.442  0.00  0.00    +0.000 F 
ATOM     23  F   UNL     1      50.489  76.925  52.002  0.00  0.00    +0.000 F 
ATOM     24  F   UNL     1      51.374  79.205  50.772  0.00  0.00    +0.000 F 
ATOM     25  C   UNL     1      48.195  77.084  49.173  0.00  0.00    +0.000 A 
ATOM     26  C   UNL     1      48.674  78.243  48.552  0.00  0.00    +0.000 A 
ATOM     27  C   UNL     1      48.834  76.643  50.347  0.00  0.00    +0.000 A 
ATOM     28  C   UNL     1      49.907  77.356  50.875  0.00  0.00    +0.000 A 
ATOM     29  C   UNL     1      49.747  78.959  49.082  0.00  0.00    +0.000 A 
ATOM     30  C   UNL     1      50.356  78.510  50.248  0.00  0.00    +0.000 A 
ENDBRANCH  21  25
ENDBRANCH  17  21
ENDBRANCH   1  17
TORSDOF 7
ENDMDL
MODEL 2
REMARK VINA RESULT:      -7.7     26.267     27.640
REMARK  Name = 11741505
REMARK  9 active torsions:
REMARK  status: ('A' for Active; 'I' for Inactive)
REMARK    1  A    between atoms: O_4  and  C_19
REMARK    2  A    between atoms: O_4  and  C_21
REMARK    3  A    between atoms: N_9  and  C_16
REMARK    4  A    between atoms: C_15  and  C_16
REMARK    5  A    between atoms: C_15  and  C_17
REMARK    6  A    between atoms: C_16  and  C_18
REMARK    7  A    between atoms: C_18  and  C_20
REMARK    8  A    between atoms: C_21  and  C_24
REMARK    9  A    between atoms: C_21  and  C_25
REMARK                            x       y       z     vdW  Elec       q    Type
REMARK                         _______ _______ _______ _____ _____    ______ ____
ROOT
ATOM      1  C   UNL     1      47.223  52.026  33.117  0.00  0.00    +0.000 C 
ENDROOT
BRANCH   1  11
ATOM      2  O   UNL     1      48.739  53.625  34.042  0.00  0.00    +0.000 OA
ATOM      3  N   UNL     1      49.076  51.469  34.719  0.00  0.00    +0.000 N 
ATOM      4  N   UNL     1      51.644  50.444  34.703  0.00  0.00    +0.000 N 
ATOM      5  N   UNL     1      51.116  48.537  33.775  0.00  0.00    +0.000 NA
ATOM      6  N   UNL     1      52.488  48.602  33.904  0.00  0.00    +0.000 NA
ATOM      7  C   UNL     1      50.018  51.895  35.765  0.00  0.00    +0.000 C 
ATOM      8  C   UNL     1      51.456  51.766  35.262  0.00  0.00    +0.000 C 
ATOM      9  C   UNL     1      49.173  50.048  34.367  0.00  0.00    +0.000 C 
ATOM     10  C   UNL     1      50.612  49.654  34.256  0.00  0.00    +0.000 A 
ATOM     11  C   UNL     1      48.425  52.436  33.961  0.00  0.00    +0.000 C 
ATOM     12  C   UNL     1      52.792  49.757  34.461  0.00  0.00    +0.000 A 
BRANCH  12  13
ATOM     13  O   UNL     1      54.009  50.216  34.741  0.00  0.00    +0.000 OA
BRANCH  13  14
ATOM     14  C   UNL     1      54.611  49.655  35.921  0.00  0.00    +0.000 C 
ATOM     15  C   UNL     1      55.498  48.475  35.524  0.00  0.00    +0.000 C 
ATOM     16  C   UNL     1      55.435  50.741  36.613  0.00  0.00    +0.000 C 
ENDBRANCH  13  14
ENDBRANCH  12  13
ENDBRANCH   1  11
BRANCH   1  17
ATOM     17  C   UNL     1      45.837  52.473  33.634  0.00  0.00    +0.000 C 
BRANCH  17  18
ATOM     18  N   UNL     1      45.651  53.881  33.222  0.00  0.00    +0.000 NA
ATOM     19  H   UNL     1      45.049  54.360  33.892  0.00  0.00    +0.000 HD
ATOM     20  H   UNL     1      46.546  54.370  33.260  0.00  0.00    +0.000 HD
ENDBRANCH  17  18
BRANCH  17  21
ATOM     21  C   UNL     1      45.740  52.360  35.172  0.00  0.00    +0.000 C 
BRANCH  21  25
ATOM     22  F   UNL     1      45.792  51.066  37.731  0.00  0.00    +0.000 F 
ATOM     23  F   UNL     1      41.085  50.911  34.981  0.00  0.00    +0.000 F 
ATOM     24  F   UNL     1      41.259  49.807  37.481  0.00  0.00    +0.000 F 
ATOM     25  C   UNL     1      44.576  51.604  35.771  0.00  0.00    +0.000 A 
ATOM     26  C   UNL     1      44.646  51.019  37.040  0.00  0.00    +0.000 A 
ATOM     27  C   UNL     1      43.353  51.550  35.078  0.00  0.00    +0.000 A 
ATOM     28  C   UNL     1      42.243  50.937  35.654  0.00  0.00    +0.000 A 
ATOM     29  C   UNL     1      43.535  50.408  37.620  0.00  0.00    +0.000 A 
ATOM     30  C   UNL     1      42.335  50.375  36.920  0.00  0.00    +0.000 A 
ENDBRANCH  21  25
ENDBRANCH  17  21
ENDBRANCH   1  17
TORSDOF 7
ENDMDL
MODEL 3
REMARK VINA RESULT:      -7.5     10.681     12.672
REMARK  Name = 11741505
REMARK  9 active torsions:
REMARK  status: ('A' for Active; 'I' for Inactive)
REMARK    1  A    between atoms: O_4  and  C_19
REMARK    2  A    between atoms: O_4  and  C_21
REMARK    3  A    between atoms: N_9  and  C_16
REMARK    4  A    between atoms: C_15  and  C_16
REMARK    5  A    between atoms: C_15  and  C_17
REMARK    6  A    between atoms: C_16  and  C_18
REMARK    7  A    between atoms: C_18  and  C_20
REMARK    8  A    between atoms: C_21  and  C_24
REMARK    9  A    between atoms: C_21  and  C_25
REMARK                            x       y       z     vdW  Elec       q    Type
REMARK                         _______ _______ _______ _____ _____    ______ ____
ROOT
ATOM      1  C   UNL     1      55.335  70.219  41.320  0.00  0.00    +0.000 C 
ENDROOT
BRANCH   1  11
ATOM      2  O   UNL     1      54.481  71.102  39.269  0.00  0.00    +0.000 OA
ATOM      3  N   UNL     1      53.017  69.801  40.445  0.00  0.00    +0.000 N 
ATOM      4  N   UNL     1      50.427  70.696  40.816  0.00  0.00    +0.000 N 
ATOM      5  N   UNL     1      50.320  70.195  42.940  0.00  0.00    +0.000 NA
ATOM      6  N   UNL     1      49.165  70.859  42.584  0.00  0.00    +0.000 NA
ATOM      7  C   UNL     1      52.078  69.752  39.314  0.00  0.00    +0.000 C 
ATOM      8  C   UNL     1      50.989  70.811  39.486  0.00  0.00    +0.000 C 
ATOM      9  C   UNL     1      52.417  69.445  41.736  0.00  0.00    +0.000 C 
ATOM     10  C   UNL     1      51.080  70.103  41.869  0.00  0.00    +0.000 A 
ATOM     11  C   UNL     1      54.239  70.443  40.282  0.00  0.00    +0.000 C 
ATOM     12  C   UNL     1      49.244  71.158  41.302  0.00  0.00    +0.000 A 
BRANCH  12  13
ATOM     13  O   UNL     1      48.344  71.815  40.576  0.00  0.00    +0.000 OA
BRANCH  13  14
ATOM     14  C   UNL     1      48.693  73.176  40.266  0.00  0.00    +0.000 C 
ATOM     15  C   UNL     1      48.238  73.502  38.843  0.00  0.00    +0.000 C 
ATOM     16  C   UNL     1      48.011  74.098  41.276  0.00  0.00    +0.000 C 
ENDBRANCH  13  14
ENDBRANCH  12  13
ENDBRANCH   1  11
BRANCH   1  17
ATOM     17  C   UNL     1      55.449  71.281  42.436  0.00  0.00    +0.000 C 
BRANCH  17  18
ATOM     18  N   UNL     1      55.445  72.605  41.778  0.00  0.00    +0.000 NA
ATOM     19  H   UNL     1      55.973  73.272  42.343  0.00  0.00    +0.000 HD
ATOM     20  H   UNL     1      55.943  72.548  40.889  0.00  0.00    +0.000 HD
ENDBRANCH  17  18
BRANCH  17  21
ATOM     21  C   UNL     1      56.747  71.107  43.257  0.00  0.00    +0.000 C 
BRANCH  21  25
ATOM     22  F   UNL     1      58.233  73.543  43.544  0.00  0.00    +0.000 F 
ATOM     23  F   UNL     1      60.491  69.616  40.507  0.00  0.00    +0.000 F 
ATOM     24  F   UNL     1      61.836  71.958  40.954  0.00  0.00    +0.000 F 
ATOM     25  C   UNL     1      58.072  71.383  42.584  0.00  0.00    +0.000 A 
ATOM     26  C   UNL     1      58.770  72.578  42.786  0.00  0.00    +0.000 A 
ATOM     27  C   UNL     1      58.672  70.385  41.795  0.00  0.00    +0.000 A 
ATOM     28  C   UNL     1      59.934  70.587  41.242  0.00  0.00    +0.000 A 
ATOM     29  C   UNL     1      60.036  72.781  42.236  0.00  0.00    +0.000 A 
ATOM     30  C   UNL     1      60.613  71.777  41.468  0.00  0.00    +0.000 A 
ENDBRANCH  21  25
ENDBRANCH  17  21
ENDBRANCH   1  17
TORSDOF 7
ENDMDL
MODEL 4
REMARK VINA RESULT:      -7.2     21.180     23.663
REMARK  Name = 11741505
REMARK  9 active torsions:
REMARK  status: ('A' for Active; 'I' for Inactive)
REMARK    1  A    between atoms: O_4  and  C_19
REMARK    2  A    between atoms: O_4  and  C_21
REMARK    3  A    between atoms: N_9  and  C_16
REMARK    4  A    between atoms: C_15  and  C_16
REMARK    5  A    between atoms: C_15  and  C_17
REMARK    6  A    between atoms: C_16  and  C_18
REMARK    7  A    between atoms: C_18  and  C_20
REMARK    8  A    between atoms: C_21  and  C_24
REMARK    9  A    between atoms: C_21  and  C_25
REMARK                            x       y       z     vdW  Elec       q    Type
REMARK                         _______ _______ _______ _____ _____    ______ ____
ROOT
ATOM      1  C   UNL     1      28.605  64.456  38.739  0.00  0.00    +0.000 C 
ENDROOT
BRANCH   1  11
ATOM      2  O   UNL     1      29.659  66.466  39.490  0.00  0.00    +0.000 OA
ATOM      3  N   UNL     1      28.869  65.110  41.151  0.00  0.00    +0.000 N 
ATOM      4  N   UNL     1      30.493  64.562  43.321  0.00  0.00    +0.000 N 
ATOM      5  N   UNL     1      30.088  62.415  43.365  0.00  0.00    +0.000 NA
ATOM      6  N   UNL     1      31.054  62.702  44.307  0.00  0.00    +0.000 NA
ATOM      7  C   UNL     1      29.076  66.153  42.166  0.00  0.00    +0.000 C 
ATOM      8  C   UNL     1      30.411  65.938  42.879  0.00  0.00    +0.000 C 
ATOM      9  C   UNL     1      28.731  63.757  41.702  0.00  0.00    +0.000 C 
ATOM     10  C   UNL     1      29.754  63.541  42.771  0.00  0.00    +0.000 A 
ATOM     11  C   UNL     1      29.121  65.406  39.816  0.00  0.00    +0.000 C 
ATOM     12  C   UNL     1      31.291  63.998  44.267  0.00  0.00    +0.000 A 
BRANCH  12  13
ATOM     13  O   UNL     1      32.169  64.675  45.002  0.00  0.00    +0.000 OA
BRANCH  13  14
ATOM     14  C   UNL     1      33.517  64.663  44.499  0.00  0.00    +0.000 C 
ATOM     15  C   UNL     1      34.010  66.101  44.340  0.00  0.00    +0.000 C 
ATOM     16  C   UNL     1      34.399  63.895  45.483  0.00  0.00    +0.000 C 
ENDBRANCH  13  14
ENDBRANCH  12  13
ENDBRANCH   1  11
BRANCH   1  17
ATOM     17  C   UNL     1      29.657  63.544  38.069  0.00  0.00    +0.000 C 
BRANCH  17  18
ATOM     18  N   UNL     1      30.988  64.022  38.503  0.00  0.00    +0.000 NA
ATOM     19  H   UNL     1      31.081  65.017  38.296  0.00  0.00    +0.000 HD
ATOM     20  H   UNL     1      31.064  63.947  39.518  0.00  0.00    +0.000 HD
ENDBRANCH  17  18
BRANCH  17  21
ATOM     21  C   UNL     1      29.559  63.597  36.528  0.00  0.00    +0.000 C 
BRANCH  21  25
ATOM     22  F   UNL     1      26.970  64.235  35.471  0.00  0.00    +0.000 F 
ATOM     23  F   UNL     1      30.765  68.143  35.226  0.00  0.00    +0.000 F 
ATOM     24  F   UNL     1      28.220  68.636  34.349  0.00  0.00    +0.000 F 
ATOM     25  C   UNL     1      29.204  64.911  35.870  0.00  0.00    +0.000 A 
ATOM     26  C   UNL     1      27.914  65.181  35.400  0.00  0.00    +0.000 A 
ATOM     27  C   UNL     1      30.169  65.933  35.794  0.00  0.00    +0.000 A 
ATOM     28  C   UNL     1      29.834  67.180  35.274  0.00  0.00    +0.000 A 
ATOM     29  C   UNL     1      27.577  66.431  34.883  0.00  0.00    +0.000 A 
ATOM     30  C   UNL     1      28.544  67.428  34.827  0.00  0.00    +0.000 A 
ENDBRANCH  21  25
ENDBRANCH  17  21
ENDBRANCH   1  17
TORSDOF 7
ENDMDL
MODEL 5
REMARK VINA RESULT:      -7.2     25.958     27.754
REMARK  Name = 11741505
REMARK  9 active torsions:
REMARK  status: ('A' for Active; 'I' for Inactive)
REMARK    1  A    between atoms: O_4  and  C_19
REMARK    2  A    between atoms: O_4  and  C_21
REMARK    3  A    between atoms: N_9  and  C_16
REMARK    4  A    between atoms: C_15  and  C_16
REMARK    5  A    between atoms: C_15  and  C_17
REMARK    6  A    between atoms: C_16  and  C_18
REMARK    7  A    between atoms: C_18  and  C_20
REMARK    8  A    between atoms: C_21  and  C_24
REMARK    9  A    between atoms: C_21  and  C_25
REMARK                            x       y       z     vdW  Elec       q    Type
REMARK                         _______ _______ _______ _____ _____    ______ ____
ROOT
ATOM      1  C   UNL     1      47.068  52.938  35.526  0.00  0.00    +0.000 C 
ENDROOT
BRANCH   1  11
ATOM      2  O   UNL     1      45.491  53.510  33.823  0.00  0.00    +0.000 OA
ATOM      3  N   UNL     1      44.901  51.730  35.128  0.00  0.00    +0.000 N 
ATOM      4  N   UNL     1      42.334  51.608  36.149  0.00  0.00    +0.000 N 
ATOM      5  N   UNL     1      42.927  51.040  38.175  0.00  0.00    +0.000 NA
ATOM      6  N   UNL     1      41.563  51.247  38.154  0.00  0.00    +0.000 NA
ATOM      7  C   UNL     1      43.794  51.376  34.228  0.00  0.00    +0.000 C 
ATOM      8  C   UNL     1      42.481  51.959  34.752  0.00  0.00    +0.000 C 
ATOM      9  C   UNL     1      44.795  51.142  36.469  0.00  0.00    +0.000 C 
ATOM     10  C   UNL     1      43.387  51.262  36.962  0.00  0.00    +0.000 A 
ATOM     11  C   UNL     1      45.746  52.778  34.782  0.00  0.00    +0.000 C 
ATOM     12  C   UNL     1      41.220  51.592  36.929  0.00  0.00    +0.000 A 
BRANCH  12  13
ATOM     13  O   UNL     1      40.000  51.896  36.494  0.00  0.00    +0.000 OA
BRANCH  13  14
ATOM     14  C   UNL     1      39.055  50.812  36.535  0.00  0.00    +0.000 C 
ATOM     15  C   UNL     1      37.971  51.126  37.566  0.00  0.00    +0.000 C 
ATOM     16  C   UNL     1      38.445  50.643  35.144  0.00  0.00    +0.000 C 
ENDBRANCH  13  14
ENDBRANCH  12  13
ENDBRANCH   1  11
BRANCH   1  17
ATOM     17  C   UNL     1      48.350  52.864  34.668  0.00  0.00    +0.000 C 
BRANCH  17  18
ATOM     18  N   UNL     1      48.206  53.858  33.583  0.00  0.00    +0.000 NA
ATOM     19  H   UNL     1      47.436  53.589  32.970  0.00  0.00    +0.000 HD
ATOM     20  H   UNL     1      47.938  54.760  33.978  0.00  0.00    +0.000 HD
ENDBRANCH  17  18
BRANCH  17  21
ATOM     21  C   UNL     1      48.552  51.456  34.065  0.00  0.00    +0.000 C 
BRANCH  21  25
ATOM     22  F   UNL     1      48.532  50.205  36.647  0.00  0.00    +0.000 F 
ATOM     23  F   UNL     1      52.833  49.195  33.450  0.00  0.00    +0.000 F 
ATOM     24  F   UNL     1      52.624  47.993  35.900  0.00  0.00    +0.000 F 
ATOM     25  C   UNL     1      49.669  50.591  34.605  0.00  0.00    +0.000 A 
ATOM     26  C   UNL     1      49.591  49.978  35.860  0.00  0.00    +0.000 A 
ATOM     27  C   UNL     1      50.789  50.319  33.798  0.00  0.00    +0.000 A 
ATOM     28  C   UNL     1      51.783  49.451  34.242  0.00  0.00    +0.000 A 
ATOM     29  C   UNL     1      50.584  49.106  36.305  0.00  0.00    +0.000 A 
ATOM     30  C   UNL     1      51.677  48.845  35.486  0.00  0.00    +0.000 A 
ENDBRANCH  21  25
ENDBRANCH  17  21
ENDBRANCH   1  17
TORSDOF 7
ENDMDL
MODEL 6
REMARK VINA RESULT:      -6.3     12.315     14.062
REMARK  Name = 11741505
REMARK  9 active torsions:
REMARK  status: ('A' for Active; 'I' for Inactive)
REMARK    1  A    between atoms: O_4  and  C_19
REMARK    2  A    between atoms: O_4  and  C_21
REMARK    3  A    between atoms: N_9  and  C_16
REMARK    4  A    between atoms: C_15  and  C_16
REMARK    5  A    between atoms: C_15  and  C_17
REMARK    6  A    between atoms: C_16  and  C_18
REMARK    7  A    between atoms: C_18  and  C_20
REMARK    8  A    between atoms: C_21  and  C_24
REMARK    9  A    between atoms: C_21  and  C_25
REMARK                            x       y       z     vdW  Elec       q    Type
REMARK                         _______ _______ _______ _____ _____    ______ ____
ROOT
ATOM      1  C   UNL     1      52.292  71.267  38.126  0.00  0.00    +0.000 C 
ENDROOT
BRANCH   1  11
ATOM      2  O   UNL     1      53.391  70.078  36.368  0.00  0.00    +0.000 OA
ATOM      3  N   UNL     1      54.761  71.363  37.668  0.00  0.00    +0.000 N 
ATOM      4  N   UNL     1      57.125  70.279  38.604  0.00  0.00    +0.000 N 
ATOM      5  N   UNL     1      56.909  71.009  40.653  0.00  0.00    +0.000 NA
ATOM      6  N   UNL     1      58.027  70.204  40.586  0.00  0.00    +0.000 NA
ATOM      7  C   UNL     1      55.884  71.193  36.734  0.00  0.00    +0.000 C 
ATOM      8  C   UNL     1      56.799  70.064  37.210  0.00  0.00    +0.000 C 
ATOM      9  C   UNL     1      55.158  71.808  39.008  0.00  0.00    +0.000 C 
ATOM     10  C   UNL     1      56.367  71.048  39.454  0.00  0.00    +0.000 A 
ATOM     11  C   UNL     1      53.522  70.823  37.340  0.00  0.00    +0.000 C 
ATOM     12  C   UNL     1      58.143  69.767  39.348  0.00  0.00    +0.000 A 
BRANCH  12  13
ATOM     13  O   UNL     1      59.078  68.950  38.871  0.00  0.00    +0.000 OA
BRANCH  13  14
ATOM     14  C   UNL     1      60.093  69.589  38.076  0.00  0.00    +0.000 C 
ATOM     15  C   UNL     1      61.070  70.320  38.997  0.00  0.00    +0.000 C 
ATOM     16  C   UNL     1      60.818  68.521  37.258  0.00  0.00    +0.000 C 
ENDBRANCH  13  14
ENDBRANCH  12  13
ENDBRANCH   1  11
BRANCH   1  17
ATOM     17  C   UNL     1      51.377  72.304  37.437  0.00  0.00    +0.000 C 
BRANCH  17  18
ATOM     18  N   UNL     1      52.200  73.503  37.171  0.00  0.00    +0.000 NA
ATOM     19  H   UNL     1      53.041  73.478  37.748  0.00  0.00    +0.000 HD
ATOM     20  H   UNL     1      52.531  73.484  36.206  0.00  0.00    +0.000 HD
ENDBRANCH  17  18
BRANCH  17  21
ATOM     21  C   UNL     1      50.173  72.682  38.329  0.00  0.00    +0.000 C 
BRANCH  21  25
ATOM     22  F   UNL     1      48.530  70.698  37.066  0.00  0.00    +0.000 F 
ATOM     23  F   UNL     1      49.174  70.296  42.466  0.00  0.00    +0.000 F 
ATOM     24  F   UNL     1      47.716  68.419  41.108  0.00  0.00    +0.000 F 
ATOM     25  C   UNL     1      49.443  71.581  39.065  0.00  0.00    +0.000 A 
ATOM     26  C   UNL     1      48.681  70.619  38.394  0.00  0.00    +0.000 A 
ATOM     27  C   UNL     1      49.594  71.460  40.459  0.00  0.00    +0.000 A 
ATOM     28  C   UNL     1      49.004  70.400  41.142  0.00  0.00    +0.000 A 
ATOM     29  C   UNL     1      48.092  69.555  39.076  0.00  0.00    +0.000 A 
ATOM     30  C   UNL     1      48.263  69.450  40.451  0.00  0.00    +0.000 A 
ENDBRANCH  21  25
ENDBRANCH  17  21
ENDBRANCH   1  17
TORSDOF 7
ENDMDL
MODEL 7
REMARK VINA RESULT:      -6.2     11.944     13.696
REMARK  Name = 11741505
REMARK  9 active torsions:
REMARK  status: ('A' for Active; 'I' for Inactive)
REMARK    1  A    between atoms: O_4  and  C_19
REMARK    2  A    between atoms: O_4  and  C_21
REMARK    3  A    between atoms: N_9  and  C_16
REMARK    4  A    between atoms: C_15  and  C_16
REMARK    5  A    between atoms: C_15  and  C_17
REMARK    6  A    between atoms: C_16  and  C_18
REMARK    7  A    between atoms: C_18  and  C_20
REMARK    8  A    between atoms: C_21  and  C_24
REMARK    9  A    between atoms: C_21  and  C_25
REMARK                            x       y       z     vdW  Elec       q    Type
REMARK                         _______ _______ _______ _____ _____    ______ ____
ROOT
ATOM      1  C   UNL     1      56.779  67.599  43.354  0.00  0.00    +0.000 C 
ENDROOT
BRANCH   1  11
ATOM      2  O   UNL     1      58.381  67.030  41.674  0.00  0.00    +0.000 OA
ATOM      3  N   UNL     1      58.446  65.730  43.551  0.00  0.00    +0.000 N 
ATOM      4  N   UNL     1      58.578  62.982  43.276  0.00  0.00    +0.000 N 
ATOM      5  N   UNL     1      57.056  62.533  44.779  0.00  0.00    +0.000 NA
ATOM      6  N   UNL     1      57.436  61.356  44.168  0.00  0.00    +0.000 NA
ATOM      7  C   UNL     1      59.717  65.116  43.140  0.00  0.00    +0.000 C 
ATOM      8  C   UNL     1      59.458  63.779  42.447  0.00  0.00    +0.000 C 
ATOM      9  C   UNL     1      57.717  64.969  44.572  0.00  0.00    +0.000 C 
ATOM     10  C   UNL     1      57.747  63.512  44.233  0.00  0.00    +0.000 A 
ATOM     11  C   UNL     1      57.903  66.746  42.773  0.00  0.00    +0.000 C 
ATOM     12  C   UNL     1      58.350  61.641  43.263  0.00  0.00    +0.000 A 
BRANCH  12  13
ATOM     13  O   UNL     1      58.959  60.788  42.443  0.00  0.00    +0.000 OA
BRANCH  13  14
ATOM     14  C   UNL     1      60.092  60.107  43.012  0.00  0.00    +0.000 C 
ATOM     15  C   UNL     1      59.761  58.623  43.170  0.00  0.00    +0.000 C 
ATOM     16  C   UNL     1      61.292  60.297  42.084  0.00  0.00    +0.000 C 
ENDBRANCH  13  14
ENDBRANCH  12  13
ENDBRANCH   1  11
BRANCH   1  17
ATOM     17  C   UNL     1      55.501  67.726  42.494  0.00  0.00    +0.000 C 
BRANCH  17  18
ATOM     18  N   UNL     1      55.613  66.738  41.400  0.00  0.00    +0.000 NA
ATOM     19  H   UNL     1      55.198  65.852  41.692  0.00  0.00    +0.000 HD
ATOM     20  H   UNL     1      55.058  67.048  40.601  0.00  0.00    +0.000 HD
ENDBRANCH  17  18
BRANCH  17  21
ATOM     21  C   UNL     1      55.349  69.146  41.905  0.00  0.00    +0.000 C 
BRANCH  21  25
ATOM     22  F   UNL     1      57.964  69.692  40.860  0.00  0.00    +0.000 F 
ATOM     23  F   UNL     1      56.147  72.987  44.808  0.00  0.00    +0.000 F 
ATOM     24  F   UNL     1      58.582  73.444  43.642  0.00  0.00    +0.000 F 
ATOM     25  C   UNL     1      56.260  70.241  42.412  0.00  0.00    +0.000 A 
ATOM     26  C   UNL     1      57.515  70.484  41.841  0.00  0.00    +0.000 A 
ATOM     27  C   UNL     1      55.813  71.102  43.431  0.00  0.00    +0.000 A 
ATOM     28  C   UNL     1      56.601  72.172  43.846  0.00  0.00    +0.000 A 
ATOM     29  C   UNL     1      58.304  71.557  42.254  0.00  0.00    +0.000 A 
ATOM     30  C   UNL     1      57.837  72.400  43.255  0.00  0.00    +0.000 A 
ENDBRANCH  21  25
ENDBRANCH  17  21
ENDBRANCH   1  17
TORSDOF 7
ENDMDL
MODEL 8
REMARK VINA RESULT:      -6.1     26.003     27.574
REMARK  Name = 11741505
REMARK  9 active torsions:
REMARK  status: ('A' for Active; 'I' for Inactive)
REMARK    1  A    between atoms: O_4  and  C_19
REMARK    2  A    between atoms: O_4  and  C_21
REMARK    3  A    between atoms: N_9  and  C_16
REMARK    4  A    between atoms: C_15  and  C_16
REMARK    5  A    between atoms: C_15  and  C_17
REMARK    6  A    between atoms: C_16  and  C_18
REMARK    7  A    between atoms: C_18  and  C_20
REMARK    8  A    between atoms: C_21  and  C_24
REMARK    9  A    between atoms: C_21  and  C_25
REMARK                            x       y       z     vdW  Elec       q    Type
REMARK                         _______ _______ _______ _____ _____    ______ ____
ROOT
ATOM      1  C   UNL     1      47.806  50.276  39.844  0.00  0.00    +0.000 C 
ENDROOT
BRANCH   1  11
ATOM      2  O   UNL     1      45.645  51.297  39.820  0.00  0.00    +0.000 OA
ATOM      3  N   UNL     1      45.636  49.022  40.022  0.00  0.00    +0.000 N 
ATOM      4  N   UNL     1      44.025  47.853  41.940  0.00  0.00    +0.000 N 
ATOM      5  N   UNL     1      45.536  46.460  42.682  0.00  0.00    +0.000 NA
ATOM      6  N   UNL     1      44.411  46.355  43.474  0.00  0.00    +0.000 NA
ATOM      7  C   UNL     1      44.185  48.960  39.790  0.00  0.00    +0.000 C 
ATOM      8  C   UNL     1      43.441  48.897  41.124  0.00  0.00    +0.000 C 
ATOM      9  C   UNL     1      46.194  47.819  40.650  0.00  0.00    +0.000 C 
ATOM     10  C   UNL     1      45.298  47.368  41.760  0.00  0.00    +0.000 A 
ATOM     11  C   UNL     1      46.283  50.249  39.932  0.00  0.00    +0.000 C 
ATOM     12  C   UNL     1      43.510  47.202  43.018  0.00  0.00    +0.000 A 
BRANCH  12  13
ATOM     13  O   UNL     1      42.295  47.422  43.513  0.00  0.00    +0.000 OA
BRANCH  13  14
ATOM     14  C   UNL     1      42.241  47.559  44.945  0.00  0.00    +0.000 C 
ATOM     15  C   UNL     1      42.106  49.039  45.305  0.00  0.00    +0.000 C 
ATOM     16  C   UNL     1      41.045  46.764  45.467  0.00  0.00    +0.000 C 
ENDBRANCH  13  14
ENDBRANCH  12  13
ENDBRANCH   1  11
BRANCH   1  17
ATOM     17  C   UNL     1      48.409  50.372  38.425  0.00  0.00    +0.000 C 
BRANCH  17  18
ATOM     18  N   UNL     1      47.318  50.778  37.515  0.00  0.00    +0.000 NA
ATOM     19  H   UNL     1      46.740  51.489  37.965  0.00  0.00    +0.000 HD
ATOM     20  H   UNL     1      47.711  51.230  36.688  0.00  0.00    +0.000 HD
ENDBRANCH  17  18
BRANCH  17  21
ATOM     21  C   UNL     1      49.001  49.021  37.965  0.00  0.00    +0.000 C 
BRANCH  21  25
ATOM     22  F   UNL     1      51.728  48.300  38.483  0.00  0.00    +0.000 F 
ATOM     23  F   UNL     1      50.450  49.586  33.340  0.00  0.00    +0.000 F 
ATOM     24  F   UNL     1      52.990  48.780  33.969  0.00  0.00    +0.000 F 
ATOM     25  C   UNL     1      50.099  49.027  36.925  0.00  0.00    +0.000 A 
ATOM     26  C   UNL     1      51.407  48.634  37.227  0.00  0.00    +0.000 A 
ATOM     27  C   UNL     1      49.791  49.358  35.593  0.00  0.00    +0.000 A 
ATOM     28  C   UNL     1      50.770  49.281  34.605  0.00  0.00    +0.000 A 
ATOM     29  C   UNL     1      52.387  48.554  36.238  0.00  0.00    +0.000 A 
ATOM     30  C   UNL     1      52.058  48.875  34.927  0.00  0.00    +0.000 A 
ENDBRANCH  21  25
ENDBRANCH  17  21
ENDBRANCH   1  17
TORSDOF 7
ENDMDL
MODEL 9
REMARK VINA RESULT:      -5.9     12.477     14.289
REMARK  Name = 11741505
REMARK  9 active torsions:
REMARK  status: ('A' for Active; 'I' for Inactive)
REMARK    1  A    between atoms: O_4  and  C_19
REMARK    2  A    between atoms: O_4  and  C_21
REMARK    3  A    between atoms: N_9  and  C_16
REMARK    4  A    between atoms: C_15  and  C_16
REMARK    5  A    between atoms: C_15  and  C_17
REMARK    6  A    between atoms: C_16  and  C_18
REMARK    7  A    between atoms: C_18  and  C_20
REMARK    8  A    between atoms: C_21  and  C_24
REMARK    9  A    between atoms: C_21  and  C_25
REMARK                            x       y       z     vdW  Elec       q    Type
REMARK                         _______ _______ _______ _____ _____    ______ ____
ROOT
ATOM      1  C   UNL     1      57.721  67.765  43.248  0.00  0.00    +0.000 C 
ENDROOT
BRANCH   1  11
ATOM      2  O   UNL     1      58.996  66.824  41.459  0.00  0.00    +0.000 OA
ATOM      3  N   UNL     1      58.999  65.607  43.392  0.00  0.00    +0.000 N 
ATOM      4  N   UNL     1      58.559  62.881  43.261  0.00  0.00    +0.000 N 
ATOM      5  N   UNL     1      57.144  62.803  44.924  0.00  0.00    +0.000 NA
ATOM      6  N   UNL     1      57.219  61.552  44.348  0.00  0.00    +0.000 NA
ATOM      7  C   UNL     1      60.076  64.736  42.898  0.00  0.00    +0.000 C 
ATOM      8  C   UNL     1      59.487  63.453  42.309  0.00  0.00    +0.000 C 
ATOM      9  C   UNL     1      58.245  65.046  44.519  0.00  0.00    +0.000 C 
ATOM     10  C   UNL     1      57.953  63.602  44.262  0.00  0.00    +0.000 A 
ATOM     11  C   UNL     1      58.589  66.683  42.613  0.00  0.00    +0.000 C 
ATOM     12  C   UNL     1      58.072  61.614  43.345  0.00  0.00    +0.000 A 
BRANCH  12  13
ATOM     13  O   UNL     1      58.412  60.626  42.521  0.00  0.00    +0.000 OA
BRANCH  13  14
ATOM     14  C   UNL     1      59.269  59.625  43.098  0.00  0.00    +0.000 C 
ATOM     15  C   UNL     1      58.643  58.246  42.893  0.00  0.00    +0.000 C 
ATOM     16  C   UNL     1      60.637  59.703  42.421  0.00  0.00    +0.000 C 
ENDBRANCH  13  14
ENDBRANCH  12  13
ENDBRANCH   1  11
BRANCH   1  17
ATOM     17  C   UNL     1      56.271  67.875  42.726  0.00  0.00    +0.000 C 
BRANCH  17  18
ATOM     18  N   UNL     1      56.249  67.279  41.374  0.00  0.00    +0.000 NA
ATOM     19  H   UNL     1      57.051  67.611  40.838  0.00  0.00    +0.000 HD
ATOM     20  H   UNL     1      56.368  66.267  41.444  0.00  0.00    +0.000 HD
ENDBRANCH  17  18
BRANCH  17  21
ATOM     21  C   UNL     1      55.800  69.345  42.659  0.00  0.00    +0.000 C 
BRANCH  21  25
ATOM     22  F   UNL     1      53.970  69.907  40.523  0.00  0.00    +0.000 F 
ATOM     23  F   UNL     1      58.942  72.118  40.159  0.00  0.00    +0.000 F 
ATOM     24  F   UNL     1      57.054  72.646  38.247  0.00  0.00    +0.000 F 
ATOM     25  C   UNL     1      56.143  70.160  41.432  0.00  0.00    +0.000 A 
ATOM     26  C   UNL     1      55.199  70.430  40.435  0.00  0.00    +0.000 A 
ATOM     27  C   UNL     1      57.420  70.738  41.317  0.00  0.00    +0.000 A 
ATOM     28  C   UNL     1      57.724  71.566  40.240  0.00  0.00    +0.000 A 
ATOM     29  C   UNL     1      55.501  71.262  39.357  0.00  0.00    +0.000 A 
ATOM     30  C   UNL     1      56.766  71.830  39.270  0.00  0.00    +0.000 A 
ENDBRANCH  21  25
ENDBRANCH  17  21
ENDBRANCH   1  17
TORSDOF 7
ENDMDL
