MODEL 1
REMARK VINA RESULT:      -9.1      0.000      0.000
REMARK  Name = 24916983
REMARK  7 active torsions:
REMARK  status: ('A' for Active; 'I' for Inactive)
REMARK    1  A    between atoms: N_10  and  C_17
REMARK    2  A    between atoms: C_13  and  C_20
REMARK    3  A    between atoms: C_17  and  C_18
REMARK    4  A    between atoms: C_17  and  C_21
REMARK    5  A    between atoms: C_18  and  C_19
REMARK    6  A    between atoms: C_21  and  C_23
REMARK    7  A    between atoms: C_22  and  C_24
REMARK                            x       y       z     vdW  Elec       q    Type
REMARK                         _______ _______ _______ _____ _____    ______ ____
ROOT
ATOM      1  C   UNL     1      39.125  50.845  38.254  0.00  0.00    +0.000 C 
ENDROOT
BRANCH   1  11
ATOM      2  O   UNL     1      40.579  52.430  39.246  0.00  0.00    +0.000 OA
ATOM      3  N   UNL     1      40.911  52.040  36.990  0.00  0.00    +0.000 N 
ATOM      4  N   UNL     1      42.803  51.578  35.018  0.00  0.00    +0.000 N 
ATOM      5  N   UNL     1      44.245  53.081  35.629  0.00  0.00    +0.000 NA
ATOM      6  N   UNL     1      43.832  51.332  34.208  0.00  0.00    +0.000 NA
ATOM      7  C   UNL     1      42.018  53.043  36.899  0.00  0.00    +0.000 C 
ATOM      8  C   UNL     1      40.488  51.433  35.713  0.00  0.00    +0.000 C 
ATOM      9  C   UNL     1      41.643  50.726  35.020  0.00  0.00    +0.000 C 
ATOM     10  C   UNL     1      43.036  52.611  35.874  0.00  0.00    +0.000 A 
ATOM     11  C   UNL     1      40.249  51.869  38.199  0.00  0.00    +0.000 C 
ATOM     12  C   UNL     1      41.463  54.431  36.567  0.00  0.00    +0.000 C 
ATOM     13  C   UNL     1      44.722  52.273  34.590  0.00  0.00    +0.000 A 
BRANCH  13  17
ATOM     14  F   UNL     1      46.161  51.898  32.700  0.00  0.00    +0.000 F 
ATOM     15  F   UNL     1      47.054  51.741  34.684  0.00  0.00    +0.000 F 
ATOM     16  F   UNL     1      46.505  53.697  33.883  0.00  0.00    +0.000 F 
ATOM     17  C   UNL     1      46.102  52.397  33.964  0.00  0.00    +0.000 C 
ENDBRANCH  13  17
ENDBRANCH   1  11
BRANCH   1  18
ATOM     18  C   UNL     1      37.720  51.474  38.353  0.00  0.00    +0.000 C 
BRANCH  18  19
ATOM     19  N   UNL     1      36.913  50.792  39.411  0.00  0.00    +0.000 N 
ATOM     20  H   UNL     1      36.112  50.301  38.964  0.00  0.00    +0.000 HD
ATOM     21  H   UNL     1      37.453  50.065  39.899  0.00  0.00    +0.000 HD
ATOM     22  H   UNL     1      36.539  51.427  40.130  0.00  0.00    +0.000 HD
ENDBRANCH  18  19
BRANCH  18  23
ATOM     23  C   UNL     1      37.004  51.371  36.988  0.00  0.00    +0.000 C 
BRANCH  23  27
ATOM     24  F   UNL     1      38.233  48.998  36.092  0.00  0.00    +0.000 F 
ATOM     25  F   UNL     1      32.843  48.802  36.796  0.00  0.00    +0.000 F 
ATOM     26  F   UNL     1      34.166  46.633  35.779  0.00  0.00    +0.000 F 
ATOM     27  C   UNL     1      36.240  50.093  36.732  0.00  0.00    +0.000 A 
ATOM     28  C   UNL     1      36.899  48.960  36.232  0.00  0.00    +0.000 A 
ATOM     29  C   UNL     1      34.855  50.022  36.929  0.00  0.00    +0.000 A 
ATOM     30  C   UNL     1      34.166  48.851  36.606  0.00  0.00    +0.000 A 
ATOM     31  C   UNL     1      36.214  47.793  35.902  0.00  0.00    +0.000 A 
ATOM     32  C   UNL     1      34.838  47.749  36.090  0.00  0.00    +0.000 A 
ENDBRANCH  23  27
ENDBRANCH  18  23
ENDBRANCH   1  18
TORSDOF 6
ENDMDL
MODEL 2
REMARK VINA RESULT:      -8.6      3.155      4.240
REMARK  Name = 24916983
REMARK  7 active torsions:
REMARK  status: ('A' for Active; 'I' for Inactive)
REMARK    1  A    between atoms: N_10  and  C_17
REMARK    2  A    between atoms: C_13  and  C_20
REMARK    3  A    between atoms: C_17  and  C_18
REMARK    4  A    between atoms: C_17  and  C_21
REMARK    5  A    between atoms: C_18  and  C_19
REMARK    6  A    between atoms: C_21  and  C_23
REMARK    7  A    between atoms: C_22  and  C_24
REMARK                            x       y       z     vdW  Elec       q    Type
REMARK                         _______ _______ _______ _____ _____    ______ ____
ROOT
ATOM      1  C   UNL     1      40.728  50.037  35.886  0.00  0.00    +0.000 C 
ENDROOT
BRANCH   1  11
ATOM      2  O   UNL     1      42.469  50.915  34.543  0.00  0.00    +0.000 OA
ATOM      3  N   UNL     1      42.621  51.372  36.805  0.00  0.00    +0.000 N 
ATOM      4  N   UNL     1      43.129  53.331  38.699  0.00  0.00    +0.000 N 
ATOM      5  N   UNL     1      44.860  54.228  37.745  0.00  0.00    +0.000 NA
ATOM      6  N   UNL     1      43.362  54.393  39.470  0.00  0.00    +0.000 NA
ATOM      7  C   UNL     1      43.913  52.112  36.649  0.00  0.00    +0.000 C 
ATOM      8  C   UNL     1      42.160  51.170  38.193  0.00  0.00    +0.000 C 
ATOM      9  C   UNL     1      41.979  52.495  38.919  0.00  0.00    +0.000 C 
ATOM     10  C   UNL     1      44.007  53.223  37.665  0.00  0.00    +0.000 A 
ATOM     11  C   UNL     1      42.037  50.786  35.690  0.00  0.00    +0.000 C 
ATOM     12  C   UNL     1      45.101  51.156  36.774  0.00  0.00    +0.000 C 
ATOM     13  C   UNL     1      44.442  54.942  38.874  0.00  0.00    +0.000 A 
BRANCH  13  17
ATOM     14  F   UNL     1      44.239  57.014  40.078  0.00  0.00    +0.000 F 
ATOM     15  F   UNL     1      45.585  56.981  38.361  0.00  0.00    +0.000 F 
ATOM     16  F   UNL     1      46.142  55.959  40.208  0.00  0.00    +0.000 F 
ATOM     17  C   UNL     1      45.093  56.220  39.378  0.00  0.00    +0.000 C 
ENDBRANCH  13  17
ENDBRANCH   1  11
BRANCH   1  18
ATOM     18  C   UNL     1      39.482  50.849  35.475  0.00  0.00    +0.000 C 
BRANCH  18  19
ATOM     19  N   UNL     1      39.879  52.201  34.972  0.00  0.00    +0.000 N 
ATOM     20  H   UNL     1      39.174  52.526  34.280  0.00  0.00    +0.000 HD
ATOM     21  H   UNL     1      39.884  52.904  35.722  0.00  0.00    +0.000 HD
ATOM     22  H   UNL     1      40.805  52.227  34.523  0.00  0.00    +0.000 HD
ENDBRANCH  18  19
BRANCH  18  23
ATOM     23  C   UNL     1      38.528  50.990  36.683  0.00  0.00    +0.000 C 
BRANCH  23  27
ATOM     24  F   UNL     1      36.116  52.265  37.390  0.00  0.00    +0.000 F 
ATOM     25  F   UNL     1      35.694  47.171  35.531  0.00  0.00    +0.000 F 
ATOM     26  F   UNL     1      33.464  48.492  36.410  0.00  0.00    +0.000 F 
ATOM     27  C   UNL     1      37.176  50.332  36.542  0.00  0.00    +0.000 A 
ATOM     28  C   UNL     1      36.015  50.997  36.965  0.00  0.00    +0.000 A 
ATOM     29  C   UNL     1      37.050  49.028  36.046  0.00  0.00    +0.000 A 
ATOM     30  C   UNL     1      35.795  48.417  36.004  0.00  0.00    +0.000 A 
ATOM     31  C   UNL     1      34.763  50.388  36.931  0.00  0.00    +0.000 A 
ATOM     32  C   UNL     1      34.663  49.089  36.450  0.00  0.00    +0.000 A 
ENDBRANCH  23  27
ENDBRANCH  18  23
ENDBRANCH   1  18
TORSDOF 6
ENDMDL
MODEL 3
REMARK VINA RESULT:      -8.2     23.497     25.589
REMARK  Name = 24916983
REMARK  7 active torsions:
REMARK  status: ('A' for Active; 'I' for Inactive)
REMARK    1  A    between atoms: N_10  and  C_17
REMARK    2  A    between atoms: C_13  and  C_20
REMARK    3  A    between atoms: C_17  and  C_18
REMARK    4  A    between atoms: C_17  and  C_21
REMARK    5  A    between atoms: C_18  and  C_19
REMARK    6  A    between atoms: C_21  and  C_23
REMARK    7  A    between atoms: C_22  and  C_24
REMARK                            x       y       z     vdW  Elec       q    Type
REMARK                         _______ _______ _______ _____ _____    ______ ____
ROOT
ATOM      1  C   UNL     1      52.901  70.758  38.078  0.00  0.00    +0.000 C 
ENDROOT
BRANCH   1  11
ATOM      2  O   UNL     1      54.470  71.812  36.652  0.00  0.00    +0.000 OA
ATOM      3  N   UNL     1      55.365  70.617  38.418  0.00  0.00    +0.000 N 
ATOM      4  N   UNL     1      57.242  70.639  40.459  0.00  0.00    +0.000 N 
ATOM      5  N   UNL     1      58.905  71.454  39.326  0.00  0.00    +0.000 NA
ATOM      6  N   UNL     1      58.164  70.829  41.401  0.00  0.00    +0.000 NA
ATOM      7  C   UNL     1      56.774  70.912  38.007  0.00  0.00    +0.000 C 
ATOM      8  C   UNL     1      55.209  69.685  39.552  0.00  0.00    +0.000 C 
ATOM      9  C   UNL     1      55.916  70.197  40.798  0.00  0.00    +0.000 C 
ATOM     10  C   UNL     1      57.665  71.013  39.219  0.00  0.00    +0.000 A 
ATOM     11  C   UNL     1      54.318  71.081  37.633  0.00  0.00    +0.000 C 
ATOM     12  C   UNL     1      57.288  69.844  37.038  0.00  0.00    +0.000 C 
ATOM     13  C   UNL     1      59.196  71.331  40.690  0.00  0.00    +0.000 A 
BRANCH  13  17
ATOM     14  F   UNL     1      60.463  72.974  41.905  0.00  0.00    +0.000 F 
ATOM     15  F   UNL     1      61.535  71.770  40.434  0.00  0.00    +0.000 F 
ATOM     16  F   UNL     1      60.885  70.875  42.316  0.00  0.00    +0.000 F 
ATOM     17  C   UNL     1      60.511  71.741  41.333  0.00  0.00    +0.000 C 
ENDBRANCH  13  17
ENDBRANCH   1  11
BRANCH   1  18
ATOM     18  C   UNL     1      51.815  71.504  37.274  0.00  0.00    +0.000 C 
BRANCH  18  19
ATOM     19  N   UNL     1      51.953  72.982  37.450  0.00  0.00    +0.000 N 
ATOM     20  H   UNL     1      52.796  73.308  36.935  0.00  0.00    +0.000 HD
ATOM     21  H   UNL     1      51.159  73.494  37.044  0.00  0.00    +0.000 HD
ATOM     22  H   UNL     1      52.041  73.283  38.431  0.00  0.00    +0.000 HD
ENDBRANCH  18  19
BRANCH  18  23
ATOM     23  C   UNL     1      50.414  71.041  37.734  0.00  0.00    +0.000 C 
BRANCH  23  27
ATOM     24  F   UNL     1      50.449  70.127  40.401  0.00  0.00    +0.000 F 
ATOM     25  F   UNL     1      47.940  74.870  39.511  0.00  0.00    +0.000 F 
ATOM     26  F   UNL     1      47.924  73.766  42.015  0.00  0.00    +0.000 F 
ATOM     27  C   UNL     1      49.801  71.813  38.878  0.00  0.00    +0.000 A 
ATOM     28  C   UNL     1      49.800  71.280  40.175  0.00  0.00    +0.000 A 
ATOM     29  C   UNL     1      49.169  73.046  38.667  0.00  0.00    +0.000 A 
ATOM     30  C   UNL     1      48.541  73.697  39.731  0.00  0.00    +0.000 A 
ATOM     31  C   UNL     1      49.168  71.923  41.238  0.00  0.00    +0.000 A 
ATOM     32  C   UNL     1      48.534  73.136  41.003  0.00  0.00    +0.000 A 
ENDBRANCH  23  27
ENDBRANCH  18  23
ENDBRANCH   1  18
TORSDOF 6
ENDMDL
MODEL 4
REMARK VINA RESULT:      -8.1     22.777     24.974
REMARK  Name = 24916983
REMARK  7 active torsions:
REMARK  status: ('A' for Active; 'I' for Inactive)
REMARK    1  A    between atoms: N_10  and  C_17
REMARK    2  A    between atoms: C_13  and  C_20
REMARK    3  A    between atoms: C_17  and  C_18
REMARK    4  A    between atoms: C_17  and  C_21
REMARK    5  A    between atoms: C_18  and  C_19
REMARK    6  A    between atoms: C_21  and  C_23
REMARK    7  A    between atoms: C_22  and  C_24
REMARK                            x       y       z     vdW  Elec       q    Type
REMARK                         _______ _______ _______ _____ _____    ______ ____
ROOT
ATOM      1  C   UNL     1      51.748  69.854  38.028  0.00  0.00    +0.000 C 
ENDROOT
BRANCH   1  11
ATOM      2  O   UNL     1      53.849  70.597  37.227  0.00  0.00    +0.000 OA
ATOM      3  N   UNL     1      53.768  70.055  39.474  0.00  0.00    +0.000 N 
ATOM      4  N   UNL     1      54.492  70.846  42.031  0.00  0.00    +0.000 N 
ATOM      5  N   UNL     1      56.529  71.455  41.589  0.00  0.00    +0.000 NA
ATOM      6  N   UNL     1      54.885  71.388  43.183  0.00  0.00    +0.000 NA
ATOM      7  C   UNL     1      55.221  70.353  39.679  0.00  0.00    +0.000 C 
ATOM      8  C   UNL     1      53.060  69.480  40.635  0.00  0.00    +0.000 C 
ATOM      9  C   UNL     1      53.138  70.396  41.847  0.00  0.00    +0.000 C 
ATOM     10  C   UNL     1      55.457  70.884  41.070  0.00  0.00    +0.000 A 
ATOM     11  C   UNL     1      53.225  70.170  38.201  0.00  0.00    +0.000 C 
ATOM     12  C   UNL     1      56.069  69.105  39.420  0.00  0.00    +0.000 C 
ATOM     13  C   UNL     1      56.152  71.759  42.903  0.00  0.00    +0.000 A 
BRANCH  13  17
ATOM     14  F   UNL     1      56.350  73.271  44.762  0.00  0.00    +0.000 F 
ATOM     15  F   UNL     1      57.984  73.242  43.316  0.00  0.00    +0.000 F 
ATOM     16  F   UNL     1      57.717  71.573  44.698  0.00  0.00    +0.000 F 
ATOM     17  C   UNL     1      57.042  72.462  43.915  0.00  0.00    +0.000 C 
ENDBRANCH  13  17
ENDBRANCH   1  11
BRANCH   1  18
ATOM     18  C   UNL     1      50.980  70.915  37.213  0.00  0.00    +0.000 C 
BRANCH  18  19
ATOM     19  N   UNL     1      51.566  72.273  37.434  0.00  0.00    +0.000 N 
ATOM     20  H   UNL     1      52.577  72.251  37.188  0.00  0.00    +0.000 HD
ATOM     21  H   UNL     1      51.142  72.980  36.819  0.00  0.00    +0.000 HD
ATOM     22  H   UNL     1      51.478  72.617  38.400  0.00  0.00    +0.000 HD
ENDBRANCH  18  19
BRANCH  18  23
ATOM     23  C   UNL     1      49.488  70.906  37.617  0.00  0.00    +0.000 C 
BRANCH  23  27
ATOM     24  F   UNL     1      49.419  69.900  40.250  0.00  0.00    +0.000 F 
ATOM     25  F   UNL     1      48.045  75.126  39.630  0.00  0.00    +0.000 F 
ATOM     26  F   UNL     1      47.875  73.953  42.097  0.00  0.00    +0.000 F 
ATOM     27  C   UNL     1      49.118  71.751  38.813  0.00  0.00    +0.000 A 
ATOM     28  C   UNL     1      49.046  71.179  40.092  0.00  0.00    +0.000 A 
ATOM     29  C   UNL     1      48.782  73.104  38.672  0.00  0.00    +0.000 A 
ATOM     30  C   UNL     1      48.366  73.837  39.784  0.00  0.00    +0.000 A 
ATOM     31  C   UNL     1      48.625  71.906  41.203  0.00  0.00    +0.000 A 
ATOM     32  C   UNL     1      48.281  73.242  41.038  0.00  0.00    +0.000 A 
ENDBRANCH  23  27
ENDBRANCH  18  23
ENDBRANCH   1  18
TORSDOF 6
ENDMDL
MODEL 5
REMARK VINA RESULT:      -8.0      6.082      9.404
REMARK  Name = 24916983
REMARK  7 active torsions:
REMARK  status: ('A' for Active; 'I' for Inactive)
REMARK    1  A    between atoms: N_10  and  C_17
REMARK    2  A    between atoms: C_13  and  C_20
REMARK    3  A    between atoms: C_17  and  C_18
REMARK    4  A    between atoms: C_17  and  C_21
REMARK    5  A    between atoms: C_18  and  C_19
REMARK    6  A    between atoms: C_21  and  C_23
REMARK    7  A    between atoms: C_22  and  C_24
REMARK                            x       y       z     vdW  Elec       q    Type
REMARK                         _______ _______ _______ _____ _____    ______ ____
ROOT
ATOM      1  C   UNL     1      48.291  53.549  36.435  0.00  0.00    +0.000 C 
ENDROOT
BRANCH   1  11
ATOM      2  O   UNL     1      49.112  53.312  34.227  0.00  0.00    +0.000 OA
ATOM      3  N   UNL     1      49.975  51.832  35.781  0.00  0.00    +0.000 N 
ATOM      4  N   UNL     1      52.282  50.632  36.741  0.00  0.00    +0.000 N 
ATOM      5  N   UNL     1      53.189  50.155  34.827  0.00  0.00    +0.000 NA
ATOM      6  N   UNL     1      53.483  50.178  37.099  0.00  0.00    +0.000 NA
ATOM      7  C   UNL     1      50.819  51.132  34.763  0.00  0.00    +0.000 C 
ATOM      8  C   UNL     1      49.970  51.234  37.131  0.00  0.00    +0.000 C 
ATOM      9  C   UNL     1      51.372  51.167  37.718  0.00  0.00    +0.000 C 
ATOM     10  C   UNL     1      52.095  50.631  35.392  0.00  0.00    +0.000 A 
ATOM     11  C   UNL     1      49.138  52.864  35.375  0.00  0.00    +0.000 C 
ATOM     12  C   UNL     1      50.042  49.982  34.116  0.00  0.00    +0.000 C 
ATOM     13  C   UNL     1      54.038  49.879  35.905  0.00  0.00    +0.000 A 
BRANCH  13  17
ATOM     14  F   UNL     1      55.499  47.973  35.764  0.00  0.00    +0.000 F 
ATOM     15  F   UNL     1      56.257  49.743  36.792  0.00  0.00    +0.000 F 
ATOM     16  F   UNL     1      56.047  49.746  34.619  0.00  0.00    +0.000 F 
ATOM     17  C   UNL     1      55.451  49.333  35.773  0.00  0.00    +0.000 C 
ENDBRANCH  13  17
ENDBRANCH   1  11
BRANCH   1  18
ATOM     18  C   UNL     1      46.773  53.355  36.235  0.00  0.00    +0.000 C 
BRANCH  18  19
ATOM     19  N   UNL     1      46.013  53.934  37.385  0.00  0.00    +0.000 N 
ATOM     20  H   UNL     1      46.652  54.027  38.201  0.00  0.00    +0.000 HD
ATOM     21  H   UNL     1      45.672  54.883  37.183  0.00  0.00    +0.000 HD
ATOM     22  H   UNL     1      45.201  53.373  37.678  0.00  0.00    +0.000 HD
ENDBRANCH  18  19
BRANCH  18  23
ATOM     23  C   UNL     1      46.454  51.850  36.088  0.00  0.00    +0.000 C 
BRANCH  23  27
ATOM     24  F   UNL     1      45.324  52.123  33.520  0.00  0.00    +0.000 F 
ATOM     25  F   UNL     1      42.003  50.327  37.435  0.00  0.00    +0.000 F 
ATOM     26  F   UNL     1      41.023  50.799  34.924  0.00  0.00    +0.000 F 
ATOM     27  C   UNL     1      45.017  51.502  35.778  0.00  0.00    +0.000 A 
ATOM     28  C   UNL     1      44.496  51.714  34.493  0.00  0.00    +0.000 A 
ATOM     29  C   UNL     1      44.155  51.019  36.772  0.00  0.00    +0.000 A 
ATOM     30  C   UNL     1      42.812  50.784  36.473  0.00  0.00    +0.000 A 
ATOM     31  C   UNL     1      43.155  51.487  34.193  0.00  0.00    +0.000 A 
ATOM     32  C   UNL     1      42.315  51.023  35.197  0.00  0.00    +0.000 A 
ENDBRANCH  23  27
ENDBRANCH  18  23
ENDBRANCH   1  18
TORSDOF 6
ENDMDL
MODEL 6
REMARK VINA RESULT:      -7.7     22.340     26.238
REMARK  Name = 24916983
REMARK  7 active torsions:
REMARK  status: ('A' for Active; 'I' for Inactive)
REMARK    1  A    between atoms: N_10  and  C_17
REMARK    2  A    between atoms: C_13  and  C_20
REMARK    3  A    between atoms: C_17  and  C_18
REMARK    4  A    between atoms: C_17  and  C_21
REMARK    5  A    between atoms: C_18  and  C_19
REMARK    6  A    between atoms: C_21  and  C_23
REMARK    7  A    between atoms: C_22  and  C_24
REMARK                            x       y       z     vdW  Elec       q    Type
REMARK                         _______ _______ _______ _____ _____    ______ ____
ROOT
ATOM      1  C   UNL     1      55.728  69.314  38.000  0.00  0.00    +0.000 C 
ENDROOT
BRANCH   1  11
ATOM      2  O   UNL     1      54.494  68.490  39.845  0.00  0.00    +0.000 OA
ATOM      3  N   UNL     1      53.296  69.753  38.322  0.00  0.00    +0.000 N 
ATOM      4  N   UNL     1      51.436  71.786  38.019  0.00  0.00    +0.000 N 
ATOM      5  N   UNL     1      50.047  71.152  39.562  0.00  0.00    +0.000 NA
ATOM      6  N   UNL     1      50.567  72.796  38.053  0.00  0.00    +0.000 NA
ATOM      7  C   UNL     1      52.011  69.579  39.070  0.00  0.00    +0.000 C 
ATOM      8  C   UNL     1      53.196  70.451  37.025  0.00  0.00    +0.000 C 
ATOM      9  C   UNL     1      52.607  71.845  37.186  0.00  0.00    +0.000 C 
ATOM     10  C   UNL     1      51.144  70.804  38.916  0.00  0.00    +0.000 A 
ATOM     11  C   UNL     1      54.442  69.120  38.787  0.00  0.00    +0.000 C 
ATOM     12  C   UNL     1      51.274  68.325  38.592  0.00  0.00    +0.000 C 
ATOM     13  C   UNL     1      49.704  72.393  39.010  0.00  0.00    +0.000 A 
BRANCH  13  17
ATOM     14  F   UNL     1      47.598  73.413  38.457  0.00  0.00    +0.000 F 
ATOM     15  F   UNL     1      48.887  74.475  39.860  0.00  0.00    +0.000 F 
ATOM     16  F   UNL     1      47.848  72.661  40.488  0.00  0.00    +0.000 F 
ATOM     17  C   UNL     1      48.514  73.233  39.446  0.00  0.00    +0.000 C 
ENDBRANCH  13  17
ENDBRANCH   1  11
BRANCH   1  18
ATOM     18  C   UNL     1      56.441  70.650  38.298  0.00  0.00    +0.000 C 
BRANCH  18  19
ATOM     19  N   UNL     1      56.865  71.314  37.028  0.00  0.00    +0.000 N 
ATOM     20  H   UNL     1      57.827  71.001  36.786  0.00  0.00    +0.000 HD
ATOM     21  H   UNL     1      56.271  71.041  36.234  0.00  0.00    +0.000 HD
ATOM     22  H   UNL     1      56.863  72.343  37.070  0.00  0.00    +0.000 HD
ENDBRANCH  18  19
BRANCH  18  23
ATOM     23  C   UNL     1      57.669  70.396  39.202  0.00  0.00    +0.000 C 
BRANCH  23  27
ATOM     24  F   UNL     1      59.909  71.763  40.231  0.00  0.00    +0.000 F 
ATOM     25  F   UNL     1      55.482  71.667  43.391  0.00  0.00    +0.000 F 
ATOM     26  F   UNL     1      57.791  72.815  44.310  0.00  0.00    +0.000 F 
ATOM     27  C   UNL     1      57.665  71.094  40.541  0.00  0.00    +0.000 A 
ATOM     28  C   UNL     1      58.829  71.709  41.025  0.00  0.00    +0.000 A 
ATOM     29  C   UNL     1      56.526  71.095  41.357  0.00  0.00    +0.000 A 
ATOM     30  C   UNL     1      56.578  71.679  42.624  0.00  0.00    +0.000 A 
ATOM     31  C   UNL     1      58.887  72.286  42.292  0.00  0.00    +0.000 A 
ATOM     32  C   UNL     1      57.751  72.262  43.090  0.00  0.00    +0.000 A 
ENDBRANCH  23  27
ENDBRANCH  18  23
ENDBRANCH   1  18
TORSDOF 6
ENDMDL
MODEL 7
REMARK VINA RESULT:      -7.6     17.690     19.560
REMARK  Name = 24916983
REMARK  7 active torsions:
REMARK  status: ('A' for Active; 'I' for Inactive)
REMARK    1  A    between atoms: N_10  and  C_17
REMARK    2  A    between atoms: C_13  and  C_20
REMARK    3  A    between atoms: C_17  and  C_18
REMARK    4  A    between atoms: C_17  and  C_21
REMARK    5  A    between atoms: C_18  and  C_19
REMARK    6  A    between atoms: C_21  and  C_23
REMARK    7  A    between atoms: C_22  and  C_24
REMARK                            x       y       z     vdW  Elec       q    Type
REMARK                         _______ _______ _______ _____ _____    ______ ____
ROOT
ATOM      1  C   UNL     1      28.471  64.167  38.404  0.00  0.00    +0.000 C 
ENDROOT
BRANCH   1  11
ATOM      2  O   UNL     1      28.981  63.450  40.603  0.00  0.00    +0.000 OA
ATOM      3  N   UNL     1      29.306  65.701  40.182  0.00  0.00    +0.000 N 
ATOM      4  N   UNL     1      31.027  67.850  40.511  0.00  0.00    +0.000 N 
ATOM      5  N   UNL     1      31.542  67.504  42.592  0.00  0.00    +0.000 NA
ATOM      6  N   UNL     1      31.978  68.758  40.725  0.00  0.00    +0.000 NA
ATOM      7  C   UNL     1      29.739  65.982  41.587  0.00  0.00    +0.000 C 
ATOM      8  C   UNL     1      29.162  66.881  39.306  0.00  0.00    +0.000 C 
ATOM      9  C   UNL     1      30.465  67.660  39.200  0.00  0.00    +0.000 C 
ATOM     10  C   UNL     1      30.761  67.091  41.610  0.00  0.00    +0.000 A 
ATOM     11  C   UNL     1      28.910  64.415  39.839  0.00  0.00    +0.000 C 
ATOM     12  C   UNL     1      28.534  66.331  42.464  0.00  0.00    +0.000 C 
ATOM     13  C   UNL     1      32.290  68.541  42.020  0.00  0.00    +0.000 A 
BRANCH  13  17
ATOM     14  F   UNL     1      32.923  69.902  43.899  0.00  0.00    +0.000 F 
ATOM     15  F   UNL     1      33.868  70.339  41.981  0.00  0.00    +0.000 F 
ATOM     16  F   UNL     1      34.425  68.543  43.091  0.00  0.00    +0.000 F 
ATOM     17  C   UNL     1      33.367  69.330  42.747  0.00  0.00    +0.000 C 
ENDBRANCH  13  17
ENDBRANCH   1  11
BRANCH   1  18
ATOM     18  C   UNL     1      29.466  63.314  37.591  0.00  0.00    +0.000 C 
BRANCH  18  19
ATOM     19  N   UNL     1      30.871  63.602  38.012  0.00  0.00    +0.000 N 
ATOM     20  H   UNL     1      31.441  62.738  37.906  0.00  0.00    +0.000 HD
ATOM     21  H   UNL     1      31.316  64.309  37.411  0.00  0.00    +0.000 HD
ATOM     22  H   UNL     1      30.961  63.929  38.984  0.00  0.00    +0.000 HD
ENDBRANCH  18  19
BRANCH  18  23
ATOM     23  C   UNL     1      29.291  63.603  36.083  0.00  0.00    +0.000 C 
BRANCH  23  27
ATOM     24  F   UNL     1      26.815  64.575  35.150  0.00  0.00    +0.000 F 
ATOM     25  F   UNL     1      30.864  68.193  35.457  0.00  0.00    +0.000 F 
ATOM     26  F   UNL     1      28.443  68.938  34.421  0.00  0.00    +0.000 F 
ATOM     27  C   UNL     1      29.062  65.047  35.705  0.00  0.00    +0.000 A 
ATOM     28  C   UNL     1      27.823  65.459  35.192  0.00  0.00    +0.000 A 
ATOM     29  C   UNL     1      30.090  65.994  35.798  0.00  0.00    +0.000 A 
ATOM     30  C   UNL     1      29.871  67.303  35.364  0.00  0.00    +0.000 A 
ATOM     31  C   UNL     1      27.603  66.762  34.752  0.00  0.00    +0.000 A 
ATOM     32  C   UNL     1      28.640  67.682  34.839  0.00  0.00    +0.000 A 
ENDBRANCH  23  27
ENDBRANCH  18  23
ENDBRANCH   1  18
TORSDOF 6
ENDMDL
MODEL 8
REMARK VINA RESULT:      -6.8     18.480     21.198
REMARK  Name = 24916983
REMARK  7 active torsions:
REMARK  status: ('A' for Active; 'I' for Inactive)
REMARK    1  A    between atoms: N_10  and  C_17
REMARK    2  A    between atoms: C_13  and  C_20
REMARK    3  A    between atoms: C_17  and  C_18
REMARK    4  A    between atoms: C_17  and  C_21
REMARK    5  A    between atoms: C_18  and  C_19
REMARK    6  A    between atoms: C_21  and  C_23
REMARK    7  A    between atoms: C_22  and  C_24
REMARK                            x       y       z     vdW  Elec       q    Type
REMARK                         _______ _______ _______ _____ _____    ______ ____
ROOT
ATOM      1  C   UNL     1      31.721  65.365  39.730  0.00  0.00    +0.000 C 
ENDROOT
BRANCH   1  11
ATOM      2  O   UNL     1      31.916  67.641  40.356  0.00  0.00    +0.000 OA
ATOM      3  N   UNL     1      30.668  66.313  41.781  0.00  0.00    +0.000 N 
ATOM      4  N   UNL     1      28.327  66.136  43.255  0.00  0.00    +0.000 N 
ATOM      5  N   UNL     1      28.352  68.137  44.097  0.00  0.00    +0.000 NA
ATOM      6  N   UNL     1      27.148  66.201  43.871  0.00  0.00    +0.000 NA
ATOM      7  C   UNL     1      30.406  67.441  42.730  0.00  0.00    +0.000 C 
ATOM      8  C   UNL     1      30.186  64.986  42.212  0.00  0.00    +0.000 C 
ATOM      9  C   UNL     1      28.685  64.991  42.461  0.00  0.00    +0.000 C 
ATOM     10  C   UNL     1      29.052  67.282  43.374  0.00  0.00    +0.000 A 
ATOM     11  C   UNL     1      31.472  66.535  40.670  0.00  0.00    +0.000 C 
ATOM     12  C   UNL     1      31.509  67.522  43.789  0.00  0.00    +0.000 C 
ATOM     13  C   UNL     1      27.172  67.444  44.396  0.00  0.00    +0.000 A 
BRANCH  13  17
ATOM     14  F   UNL     1      24.797  67.660  44.704  0.00  0.00    +0.000 F 
ATOM     15  F   UNL     1      26.034  69.380  45.223  0.00  0.00    +0.000 F 
ATOM     16  F   UNL     1      26.041  67.605  46.494  0.00  0.00    +0.000 F 
ATOM     17  C   UNL     1      26.013  68.019  45.195  0.00  0.00    +0.000 C 
ENDBRANCH  13  17
ENDBRANCH   1  11
BRANCH   1  18
ATOM     18  C   UNL     1      31.024  65.511  38.362  0.00  0.00    +0.000 C 
BRANCH  18  19
ATOM     19  N   UNL     1      31.718  66.539  37.526  0.00  0.00    +0.000 N 
ATOM     20  H   UNL     1      31.635  66.274  36.524  0.00  0.00    +0.000 HD
ATOM     21  H   UNL     1      31.277  67.465  37.610  0.00  0.00    +0.000 HD
ATOM     22  H   UNL     1      32.717  66.656  37.746  0.00  0.00    +0.000 HD
ENDBRANCH  18  19
BRANCH  18  23
ATOM     23  C   UNL     1      29.543  65.904  38.569  0.00  0.00    +0.000 C 
BRANCH  23  27
ATOM     24  F   UNL     1      28.676  68.569  38.266  0.00  0.00    +0.000 F 
ATOM     25  F   UNL     1      27.485  65.168  34.191  0.00  0.00    +0.000 F 
ATOM     26  F   UNL     1      26.576  67.749  34.125  0.00  0.00    +0.000 F 
ATOM     27  C   UNL     1      28.808  66.397  37.345  0.00  0.00    +0.000 A 
ATOM     28  C   UNL     1      28.352  67.722  37.277  0.00  0.00    +0.000 A 
ATOM     29  C   UNL     1      28.513  65.538  36.279  0.00  0.00    +0.000 A 
ATOM     30  C   UNL     1      27.761  66.003  35.198  0.00  0.00    +0.000 A 
ATOM     31  C   UNL     1      27.596  68.188  36.204  0.00  0.00    +0.000 A 
ATOM     32  C   UNL     1      27.301  67.315  35.165  0.00  0.00    +0.000 A 
ENDBRANCH  23  27
ENDBRANCH  18  23
ENDBRANCH   1  18
TORSDOF 6
ENDMDL
MODEL 9
REMARK VINA RESULT:      -6.1     24.974     27.471
REMARK  Name = 24916983
REMARK  7 active torsions:
REMARK  status: ('A' for Active; 'I' for Inactive)
REMARK    1  A    between atoms: N_10  and  C_17
REMARK    2  A    between atoms: C_13  and  C_20
REMARK    3  A    between atoms: C_17  and  C_18
REMARK    4  A    between atoms: C_17  and  C_21
REMARK    5  A    between atoms: C_18  and  C_19
REMARK    6  A    between atoms: C_21  and  C_23
REMARK    7  A    between atoms: C_22  and  C_24
REMARK                            x       y       z     vdW  Elec       q    Type
REMARK                         _______ _______ _______ _____ _____    ______ ____
ROOT
ATOM      1  C   UNL     1      47.855  65.235  56.391  0.00  0.00    +0.000 C 
ENDROOT
BRANCH   1  11
ATOM      2  O   UNL     1      46.353  66.000  54.728  0.00  0.00    +0.000 OA
ATOM      3  N   UNL     1      48.594  66.060  54.158  0.00  0.00    +0.000 N 
ATOM      4  N   UNL     1      50.605  67.577  53.002  0.00  0.00    +0.000 N 
ATOM      5  N   UNL     1      49.487  68.300  51.288  0.00  0.00    +0.000 NA
ATOM      6  N   UNL     1      51.453  68.447  52.454  0.00  0.00    +0.000 NA
ATOM      7  C   UNL     1      48.311  66.581  52.783  0.00  0.00    +0.000 C 
ATOM      8  C   UNL     1      50.004  65.724  54.441  0.00  0.00    +0.000 C 
ATOM      9  C   UNL     1      50.913  66.928  54.249  0.00  0.00    +0.000 C 
ATOM     10  C   UNL     1      49.429  67.484  52.324  0.00  0.00    +0.000 A 
ATOM     11  C   UNL     1      47.531  65.768  55.004  0.00  0.00    +0.000 C 
ATOM     12  C   UNL     1      48.104  65.426  51.801  0.00  0.00    +0.000 C 
ATOM     13  C   UNL     1      50.754  68.888  51.387  0.00  0.00    +0.000 A 
BRANCH  13  17
ATOM     14  F   UNL     1      50.554  71.079  50.415  0.00  0.00    +0.000 F 
ATOM     15  F   UNL     1      51.341  69.488  49.146  0.00  0.00    +0.000 F 
ATOM     16  F   UNL     1      52.566  70.310  50.755  0.00  0.00    +0.000 F 
ATOM     17  C   UNL     1      51.295  69.938  50.430  0.00  0.00    +0.000 C 
ENDBRANCH  13  17
ENDBRANCH   1  11
BRANCH   1  18
ATOM     18  C   UNL     1      46.851  65.681  57.475  0.00  0.00    +0.000 C 
BRANCH  18  19
ATOM     19  N   UNL     1      46.926  67.160  57.682  0.00  0.00    +0.000 N 
ATOM     20  H   UNL     1      46.781  67.369  58.691  0.00  0.00    +0.000 HD
ATOM     21  H   UNL     1      47.853  67.536  57.446  0.00  0.00    +0.000 HD
ATOM     22  H   UNL     1      46.233  67.696  57.142  0.00  0.00    +0.000 HD
ENDBRANCH  18  19
BRANCH  18  23
ATOM     23  C   UNL     1      47.150  64.942  58.799  0.00  0.00    +0.000 C 
BRANCH  23  27
ATOM     24  F   UNL     1      46.707  66.425  61.154  0.00  0.00    +0.000 F 
ATOM     25  F   UNL     1      51.896  65.742  59.675  0.00  0.00    +0.000 F 
ATOM     26  F   UNL     1      51.289  67.292  61.848  0.00  0.00    +0.000 F 
ATOM     27  C   UNL     1      48.270  65.508  59.639  0.00  0.00    +0.000 A 
ATOM     28  C   UNL     1      47.985  66.287  60.770  0.00  0.00    +0.000 A 
ATOM     29  C   UNL     1      49.612  65.322  59.282  0.00  0.00    +0.000 A 
ATOM     30  C   UNL     1      50.621  65.927  60.033  0.00  0.00    +0.000 A 
ATOM     31  C   UNL     1      48.989  66.896  61.519  0.00  0.00    +0.000 A 
ATOM     32  C   UNL     1      50.312  66.713  61.137  0.00  0.00    +0.000 A 
ENDBRANCH  23  27
ENDBRANCH  18  23
ENDBRANCH   1  18
TORSDOF 6
ENDMDL
