MODEL 1
REMARK VINA RESULT:      -8.6      0.000      0.000
REMARK  Name = 4369359
REMARK  6 active torsions:
REMARK  status: ('A' for Active; 'I' for Inactive)
REMARK    1  A    between atoms: N_11  and  C_18
REMARK    2  A    between atoms: C_17  and  C_18
REMARK    3  A    between atoms: C_17  and  C_19
REMARK    4  A    between atoms: C_18  and  C_20
REMARK    5  A    between atoms: C_20  and  C_22
REMARK    6  A    between atoms: C_21  and  C_23
REMARK                            x       y       z     vdW  Elec       q    Type
REMARK                         _______ _______ _______ _____ _____    ______ ____
ROOT
ATOM      1  C   UNL     1      46.941  73.611  48.706  0.00  0.00    +0.000 C 
ENDROOT
BRANCH   1  11
ATOM      2  O   UNL     1      45.392  72.355  50.055  0.00  0.00    +0.000 OA
ATOM      3  N   UNL     1      47.514  71.505  49.902  0.00  0.00    +0.000 N 
ATOM      4  N   UNL     1      49.527  69.976  51.087  0.00  0.00    +0.000 N 
ATOM      5  N   UNL     1      51.075  70.512  49.644  0.00  0.00    +0.000 NA
ATOM      6  N   UNL     1      51.644  69.759  50.642  0.00  0.00    +0.000 NA
ATOM      7  C   UNL     1      47.127  70.341  50.702  0.00  0.00    +0.000 C 
ATOM      8  C   UNL     1      48.218  69.955  51.699  0.00  0.00    +0.000 C 
ATOM      9  C   UNL     1      48.758  71.366  49.132  0.00  0.00    +0.000 C 
ATOM     10  C   UNL     1      49.795  70.645  49.920  0.00  0.00    +0.000 A 
ATOM     11  C   UNL     1      46.532  72.448  49.599  0.00  0.00    +0.000 C 
ATOM     12  C   UNL     1      50.708  69.435  51.519  0.00  0.00    +0.000 A 
BRANCH  12  16
ATOM     13  F   UNL     1      52.198  68.431  53.067  0.00  0.00    +0.000 F 
ATOM     14  F   UNL     1      50.331  67.399  52.661  0.00  0.00    +0.000 F 
ATOM     15  F   UNL     1      50.335  69.237  53.842  0.00  0.00    +0.000 F 
ATOM     16  C   UNL     1      50.887  68.633  52.758  0.00  0.00    +0.000 C 
ENDBRANCH  12  16
ENDBRANCH   1  11
BRANCH   1  17
ATOM     17  C   UNL     1      46.546  75.000  49.255  0.00  0.00    +0.000 C 
BRANCH  17  18
ATOM     18  N   UNL     1      45.068  75.040  49.267  0.00  0.00    +0.000 NA
ATOM     19  H   UNL     1      44.717  75.077  48.306  0.00  0.00    +0.000 HD
ATOM     20  H   UNL     1      44.757  75.915  49.691  0.00  0.00    +0.000 HD
ENDBRANCH  17  18
BRANCH  17  21
ATOM     21  C   UNL     1      47.147  76.154  48.413  0.00  0.00    +0.000 C 
BRANCH  21  25
ATOM     22  F   UNL     1      48.065  78.631  47.379  0.00  0.00    +0.000 F 
ATOM     23  F   UNL     1      50.441  76.889  51.961  0.00  0.00    +0.000 F 
ATOM     24  F   UNL     1      51.294  79.194  50.756  0.00  0.00    +0.000 F 
ATOM     25  C   UNL     1      48.200  77.001  49.095  0.00  0.00    +0.000 A 
ATOM     26  C   UNL     1      48.639  78.198  48.512  0.00  0.00    +0.000 A 
ATOM     27  C   UNL     1      48.807  76.575  50.286  0.00  0.00    +0.000 A 
ATOM     28  C   UNL     1      49.846  77.322  50.841  0.00  0.00    +0.000 A 
ATOM     29  C   UNL     1      49.671  78.947  49.068  0.00  0.00    +0.000 A 
ATOM     30  C   UNL     1      50.278  78.495  50.230  0.00  0.00    +0.000 A 
ENDBRANCH  21  25
ENDBRANCH  17  21
ENDBRANCH   1  17
TORSDOF 6
ENDMDL
MODEL 2
REMARK VINA RESULT:      -8.1     25.967     28.501
REMARK  Name = 4369359
REMARK  6 active torsions:
REMARK  status: ('A' for Active; 'I' for Inactive)
REMARK    1  A    between atoms: N_11  and  C_18
REMARK    2  A    between atoms: C_17  and  C_18
REMARK    3  A    between atoms: C_17  and  C_19
REMARK    4  A    between atoms: C_18  and  C_20
REMARK    5  A    between atoms: C_20  and  C_22
REMARK    6  A    between atoms: C_21  and  C_23
REMARK                            x       y       z     vdW  Elec       q    Type
REMARK                         _______ _______ _______ _____ _____    ______ ____
ROOT
ATOM      1  C   UNL     1      37.715  51.806  39.977  0.00  0.00    +0.000 C 
ENDROOT
BRANCH   1  11
ATOM      2  O   UNL     1      39.268  50.227  40.920  0.00  0.00    +0.000 OA
ATOM      3  N   UNL     1      37.827  51.226  42.394  0.00  0.00    +0.000 N 
ATOM      4  N   UNL     1      36.441  51.055  44.812  0.00  0.00    +0.000 N 
ATOM      5  N   UNL     1      35.221  52.835  44.482  0.00  0.00    +0.000 NA
ATOM      6  N   UNL     1      34.804  52.223  45.638  0.00  0.00    +0.000 NA
ATOM      7  C   UNL     1      38.465  50.536  43.517  0.00  0.00    +0.000 C 
ATOM      8  C   UNL     1      37.437  50.045  44.535  0.00  0.00    +0.000 C 
ATOM      9  C   UNL     1      36.994  52.386  42.746  0.00  0.00    +0.000 C 
ATOM     10  C   UNL     1      36.208  52.123  43.983  0.00  0.00    +0.000 A 
ATOM     11  C   UNL     1      38.350  51.023  41.117  0.00  0.00    +0.000 C 
ATOM     12  C   UNL     1      35.541  51.143  45.840  0.00  0.00    +0.000 A 
BRANCH  12  16
ATOM     13  F   UNL     1      36.566  50.094  47.704  0.00  0.00    +0.000 F 
ATOM     14  F   UNL     1      35.153  48.920  46.546  0.00  0.00    +0.000 F 
ATOM     15  F   UNL     1      34.442  50.531  47.838  0.00  0.00    +0.000 F 
ATOM     16  C   UNL     1      35.424  50.181  46.968  0.00  0.00    +0.000 C 
ENDBRANCH  12  16
ENDBRANCH   1  11
BRANCH   1  17
ATOM     17  C   UNL     1      38.082  51.286  38.569  0.00  0.00    +0.000 C 
BRANCH  17  18
ATOM     18  N   UNL     1      39.340  51.963  38.188  0.00  0.00    +0.000 NA
ATOM     19  H   UNL     1      40.138  51.367  38.426  0.00  0.00    +0.000 HD
ATOM     20  H   UNL     1      39.460  52.800  38.760  0.00  0.00    +0.000 HD
ENDBRANCH  17  18
BRANCH  17  21
ATOM     21  C   UNL     1      36.955  51.542  37.538  0.00  0.00    +0.000 C 
BRANCH  21  25
ATOM     22  F   UNL     1      38.357  49.721  35.875  0.00  0.00    +0.000 F 
ATOM     23  F   UNL     1      33.064  48.701  36.660  0.00  0.00    +0.000 F 
ATOM     24  F   UNL     1      34.538  47.120  34.981  0.00  0.00    +0.000 F 
ATOM     25  C   UNL     1      36.316  50.313  36.927  0.00  0.00    +0.000 A 
ATOM     26  C   UNL     1      37.055  49.473  36.081  0.00  0.00    +0.000 A 
ATOM     27  C   UNL     1      34.959  50.026  37.136  0.00  0.00    +0.000 A 
ATOM     28  C   UNL     1      34.369  48.947  36.479  0.00  0.00    +0.000 A 
ATOM     29  C   UNL     1      36.469  48.392  35.431  0.00  0.00    +0.000 A 
ATOM     30  C   UNL     1      35.119  48.141  35.627  0.00  0.00    +0.000 A 
ENDBRANCH  21  25
ENDBRANCH  17  21
ENDBRANCH   1  17
TORSDOF 6
ENDMDL
MODEL 3
REMARK VINA RESULT:      -7.7     25.941     28.095
REMARK  Name = 4369359
REMARK  6 active torsions:
REMARK  status: ('A' for Active; 'I' for Inactive)
REMARK    1  A    between atoms: N_11  and  C_18
REMARK    2  A    between atoms: C_17  and  C_18
REMARK    3  A    between atoms: C_17  and  C_19
REMARK    4  A    between atoms: C_18  and  C_20
REMARK    5  A    between atoms: C_20  and  C_22
REMARK    6  A    between atoms: C_21  and  C_23
REMARK                            x       y       z     vdW  Elec       q    Type
REMARK                         _______ _______ _______ _____ _____    ______ ____
ROOT
ATOM      1  C   UNL     1      48.939  52.889  35.754  0.00  0.00    +0.000 C 
ENDROOT
BRANCH   1  11
ATOM      2  O   UNL     1      48.047  53.332  33.562  0.00  0.00    +0.000 OA
ATOM      3  N   UNL     1      46.673  52.193  34.998  0.00  0.00    +0.000 N 
ATOM      4  N   UNL     1      44.059  51.566  35.753  0.00  0.00    +0.000 N 
ATOM      5  N   UNL     1      44.611  50.572  37.616  0.00  0.00    +0.000 NA
ATOM      6  N   UNL     1      43.241  50.648  37.546  0.00  0.00    +0.000 NA
ATOM      7  C   UNL     1      45.657  52.059  33.951  0.00  0.00    +0.000 C 
ATOM      8  C   UNL     1      44.248  52.268  34.504  0.00  0.00    +0.000 C 
ATOM      9  C   UNL     1      46.531  51.286  36.146  0.00  0.00    +0.000 C 
ATOM     10  C   UNL     1      45.102  51.133  36.532  0.00  0.00    +0.000 A 
ATOM     11  C   UNL     1      47.871  52.826  34.670  0.00  0.00    +0.000 C 
ATOM     12  C   UNL     1      42.905  51.251  36.418  0.00  0.00    +0.000 A 
BRANCH  12  16
ATOM     13  F   UNL     1      40.576  51.247  36.870  0.00  0.00    +0.000 F 
ATOM     14  F   UNL     1      41.201  50.847  34.829  0.00  0.00    +0.000 F 
ATOM     15  F   UNL     1      41.360  52.865  35.651  0.00  0.00    +0.000 F 
ATOM     16  C   UNL     1      41.527  51.550  35.944  0.00  0.00    +0.000 C 
ENDBRANCH  12  16
ENDBRANCH   1  11
BRANCH   1  17
ATOM     17  C   UNL     1      50.203  52.055  35.446  0.00  0.00    +0.000 C 
BRANCH  17  18
ATOM     18  N   UNL     1      50.858  52.701  34.288  0.00  0.00    +0.000 NA
ATOM     19  H   UNL     1      51.602  52.094  33.931  0.00  0.00    +0.000 HD
ATOM     20  H   UNL     1      51.338  53.546  34.600  0.00  0.00    +0.000 HD
ENDBRANCH  17  18
BRANCH  17  21
ATOM     21  C   UNL     1      49.869  50.569  35.164  0.00  0.00    +0.000 C 
BRANCH  21  25
ATOM     22  F   UNL     1      51.306  49.908  37.520  0.00  0.00    +0.000 F 
ATOM     23  F   UNL     1      53.079  47.654  32.889  0.00  0.00    +0.000 F 
ATOM     24  F   UNL     1      54.426  47.228  35.233  0.00  0.00    +0.000 F 
ATOM     25  C   UNL     1      51.037  49.606  35.184  0.00  0.00    +0.000 A 
ATOM     26  C   UNL     1      51.730  49.351  36.375  0.00  0.00    +0.000 A 
ATOM     27  C   UNL     1      51.493  49.002  34.003  0.00  0.00    +0.000 A 
ATOM     28  C   UNL     1      52.633  48.199  34.029  0.00  0.00    +0.000 A 
ATOM     29  C   UNL     1      52.864  48.545  36.405  0.00  0.00    +0.000 A 
ATOM     30  C   UNL     1      53.316  47.980  35.221  0.00  0.00    +0.000 A 
ENDBRANCH  21  25
ENDBRANCH  17  21
ENDBRANCH   1  17
TORSDOF 6
ENDMDL
MODEL 4
REMARK VINA RESULT:      -7.2     26.424     28.053
REMARK  Name = 4369359
REMARK  6 active torsions:
REMARK  status: ('A' for Active; 'I' for Inactive)
REMARK    1  A    between atoms: N_11  and  C_18
REMARK    2  A    between atoms: C_17  and  C_18
REMARK    3  A    between atoms: C_17  and  C_19
REMARK    4  A    between atoms: C_18  and  C_20
REMARK    5  A    between atoms: C_20  and  C_22
REMARK    6  A    between atoms: C_21  and  C_23
REMARK                            x       y       z     vdW  Elec       q    Type
REMARK                         _______ _______ _______ _____ _____    ______ ____
ROOT
ATOM      1  C   UNL     1      47.635  51.734  34.993  0.00  0.00    +0.000 C 
ENDROOT
BRANCH   1  11
ATOM      2  O   UNL     1      47.740  51.405  37.376  0.00  0.00    +0.000 OA
ATOM      3  N   UNL     1      45.641  51.484  36.461  0.00  0.00    +0.000 N 
ATOM      4  N   UNL     1      42.966  50.704  36.638  0.00  0.00    +0.000 N 
ATOM      5  N   UNL     1      42.404  51.428  34.657  0.00  0.00    +0.000 NA
ATOM      6  N   UNL     1      41.333  50.765  35.204  0.00  0.00    +0.000 NA
ATOM      7  C   UNL     1      45.035  51.364  37.789  0.00  0.00    +0.000 C 
ATOM      8  C   UNL     1      43.820  50.437  37.773  0.00  0.00    +0.000 C 
ATOM      9  C   UNL     1      44.754  51.971  35.395  0.00  0.00    +0.000 C 
ATOM     10  C   UNL     1      43.391  51.385  35.526  0.00  0.00    +0.000 A 
ATOM     11  C   UNL     1      47.032  51.536  36.378  0.00  0.00    +0.000 C 
ATOM     12  C   UNL     1      41.672  50.324  36.405  0.00  0.00    +0.000 A 
BRANCH  12  16
ATOM     13  F   UNL     1      40.609  50.195  38.521  0.00  0.00    +0.000 F 
ATOM     14  F   UNL     1      41.366  48.348  37.667  0.00  0.00    +0.000 F 
ATOM     15  F   UNL     1      39.587  49.298  36.827  0.00  0.00    +0.000 F 
ATOM     16  C   UNL     1      40.818  49.547  37.342  0.00  0.00    +0.000 C 
ENDBRANCH  12  16
ENDBRANCH   1  11
BRANCH   1  17
ATOM     17  C   UNL     1      49.178  51.808  34.980  0.00  0.00    +0.000 C 
BRANCH  17  18
ATOM     18  N   UNL     1      49.528  53.151  34.470  0.00  0.00    +0.000 NA
ATOM     19  H   UNL     1      49.396  53.180  33.455  0.00  0.00    +0.000 HD
ATOM     20  H   UNL     1      50.525  53.316  34.608  0.00  0.00    +0.000 HD
ENDBRANCH  17  18
BRANCH  17  21
ATOM     21  C   UNL     1      49.811  50.684  34.121  0.00  0.00    +0.000 C 
BRANCH  21  25
ATOM     22  F   UNL     1      52.248  50.676  32.669  0.00  0.00    +0.000 F 
ATOM     23  F   UNL     1      52.308  48.188  37.515  0.00  0.00    +0.000 F 
ATOM     24  F   UNL     1      54.535  48.163  35.924  0.00  0.00    +0.000 F 
ATOM     25  C   UNL     1      51.093  50.079  34.651  0.00  0.00    +0.000 A 
ATOM     26  C   UNL     1      52.255  50.073  33.867  0.00  0.00    +0.000 A 
ATOM     27  C   UNL     1      51.129  49.452  35.906  0.00  0.00    +0.000 A 
ATOM     28  C   UNL     1      52.294  48.812  36.329  0.00  0.00    +0.000 A 
ATOM     29  C   UNL     1      53.420  49.441  34.290  0.00  0.00    +0.000 A 
ATOM     30  C   UNL     1      53.428  48.802  35.521  0.00  0.00    +0.000 A 
ENDBRANCH  21  25
ENDBRANCH  17  21
ENDBRANCH   1  17
TORSDOF 6
ENDMDL
MODEL 5
REMARK VINA RESULT:      -7.2     24.938     27.030
REMARK  Name = 4369359
REMARK  6 active torsions:
REMARK  status: ('A' for Active; 'I' for Inactive)
REMARK    1  A    between atoms: N_11  and  C_18
REMARK    2  A    between atoms: C_17  and  C_18
REMARK    3  A    between atoms: C_17  and  C_19
REMARK    4  A    between atoms: C_18  and  C_20
REMARK    5  A    between atoms: C_20  and  C_22
REMARK    6  A    between atoms: C_21  and  C_23
REMARK                            x       y       z     vdW  Elec       q    Type
REMARK                         _______ _______ _______ _____ _____    ______ ____
ROOT
ATOM      1  C   UNL     1      48.100  52.470  36.235  0.00  0.00    +0.000 C 
ENDROOT
BRANCH   1  11
ATOM      2  O   UNL     1      49.327  53.528  34.455  0.00  0.00    +0.000 OA
ATOM      3  N   UNL     1      50.471  51.961  35.674  0.00  0.00    +0.000 N 
ATOM      4  N   UNL     1      52.522  50.068  35.739  0.00  0.00    +0.000 N 
ATOM      5  N   UNL     1      51.970  49.226  37.675  0.00  0.00    +0.000 NA
ATOM      6  N   UNL     1      52.994  48.479  37.146  0.00  0.00    +0.000 NA
ATOM      7  C   UNL     1      51.692  52.229  34.911  0.00  0.00    +0.000 C 
ATOM      8  C   UNL     1      52.448  50.941  34.589  0.00  0.00    +0.000 C 
ATOM      9  C   UNL     1      50.655  51.251  36.948  0.00  0.00    +0.000 C 
ATOM     10  C   UNL     1      51.684  50.183  36.819  0.00  0.00    +0.000 A 
ATOM     11  C   UNL     1      49.335  52.716  35.380  0.00  0.00    +0.000 C 
ATOM     12  C   UNL     1      53.329  48.987  35.971  0.00  0.00    +0.000 A 
BRANCH  12  16
ATOM     13  F   UNL     1      55.104  47.462  35.587  0.00  0.00    +0.000 F 
ATOM     14  F   UNL     1      55.286  49.446  34.724  0.00  0.00    +0.000 F 
ATOM     15  F   UNL     1      53.866  48.010  33.889  0.00  0.00    +0.000 F 
ATOM     16  C   UNL     1      54.384  48.485  35.051  0.00  0.00    +0.000 C 
ENDBRANCH  12  16
ENDBRANCH   1  11
BRANCH   1  17
ATOM     17  C   UNL     1      46.903  51.873  35.462  0.00  0.00    +0.000 C 
BRANCH  17  18
ATOM     18  N   UNL     1      46.320  52.980  34.674  0.00  0.00    +0.000 NA
ATOM     19  H   UNL     1      45.590  53.444  35.221  0.00  0.00    +0.000 HD
ATOM     20  H   UNL     1      45.835  52.598  33.862  0.00  0.00    +0.000 HD
ENDBRANCH  17  18
BRANCH  17  21
ATOM     21  C   UNL     1      45.860  51.227  36.408  0.00  0.00    +0.000 C 
BRANCH  21  25
ATOM     22  F   UNL     1      45.208  53.536  37.921  0.00  0.00    +0.000 F 
ATOM     23  F   UNL     1      41.143  51.267  35.093  0.00  0.00    +0.000 F 
ATOM     24  F   UNL     1      40.662  53.424  36.708  0.00  0.00    +0.000 F 
ATOM     25  C   UNL     1      44.483  51.856  36.414  0.00  0.00    +0.000 A 
ATOM     26  C   UNL     1      44.215  52.975  37.214  0.00  0.00    +0.000 A 
ATOM     27  C   UNL     1      43.431  51.295  35.675  0.00  0.00    +0.000 A 
ATOM     28  C   UNL     1      42.148  51.831  35.777  0.00  0.00    +0.000 A 
ATOM     29  C   UNL     1      42.937  53.516  37.312  0.00  0.00    +0.000 A 
ATOM     30  C   UNL     1      41.903  52.929  36.596  0.00  0.00    +0.000 A 
ENDBRANCH  21  25
ENDBRANCH  17  21
ENDBRANCH   1  17
TORSDOF 6
ENDMDL
MODEL 6
REMARK VINA RESULT:      -7.1     26.000     27.438
REMARK  Name = 4369359
REMARK  6 active torsions:
REMARK  status: ('A' for Active; 'I' for Inactive)
REMARK    1  A    between atoms: N_11  and  C_18
REMARK    2  A    between atoms: C_17  and  C_18
REMARK    3  A    between atoms: C_17  and  C_19
REMARK    4  A    between atoms: C_18  and  C_20
REMARK    5  A    between atoms: C_20  and  C_22
REMARK    6  A    between atoms: C_21  and  C_23
REMARK                            x       y       z     vdW  Elec       q    Type
REMARK                         _______ _______ _______ _____ _____    ______ ____
ROOT
ATOM      1  C   UNL     1      48.042  51.598  35.284  0.00  0.00    +0.000 C 
ENDROOT
BRANCH   1  11
ATOM      2  O   UNL     1      49.472  53.354  34.467  0.00  0.00    +0.000 OA
ATOM      3  N   UNL     1      50.513  51.643  35.581  0.00  0.00    +0.000 N 
ATOM      4  N   UNL     1      52.840  50.145  35.944  0.00  0.00    +0.000 N 
ATOM      5  N   UNL     1      51.919  48.632  37.219  0.00  0.00    +0.000 NA
ATOM      6  N   UNL     1      53.214  48.257  36.956  0.00  0.00    +0.000 NA
ATOM      7  C   UNL     1      51.805  52.320  35.453  0.00  0.00    +0.000 C 
ATOM      8  C   UNL     1      52.927  51.334  35.128  0.00  0.00    +0.000 C 
ATOM      9  C   UNL     1      50.445  50.579  36.592  0.00  0.00    +0.000 C 
ATOM     10  C   UNL     1      51.695  49.771  36.601  0.00  0.00    +0.000 A 
ATOM     11  C   UNL     1      49.383  52.288  35.075  0.00  0.00    +0.000 C 
ATOM     12  C   UNL     1      53.774  49.173  36.182  0.00  0.00    +0.000 A 
BRANCH  12  16
ATOM     13  F   UNL     1      55.273  49.810  34.458  0.00  0.00    +0.000 F 
ATOM     14  F   UNL     1      55.623  47.902  35.435  0.00  0.00    +0.000 F 
ATOM     15  F   UNL     1      56.038  49.769  36.491  0.00  0.00    +0.000 F 
ATOM     16  C   UNL     1      55.163  49.161  35.650  0.00  0.00    +0.000 C 
ENDBRANCH  12  16
ENDBRANCH   1  11
BRANCH   1  17
ATOM     17  C   UNL     1      47.305  52.024  36.574  0.00  0.00    +0.000 C 
BRANCH  17  18
ATOM     18  N   UNL     1      46.961  50.777  37.290  0.00  0.00    +0.000 NA
ATOM     19  H   UNL     1      46.803  50.024  36.615  0.00  0.00    +0.000 HD
ATOM     20  H   UNL     1      46.065  50.896  37.764  0.00  0.00    +0.000 HD
ENDBRANCH  17  18
BRANCH  17  21
ATOM     21  C   UNL     1      46.050  52.881  36.274  0.00  0.00    +0.000 C 
BRANCH  21  25
ATOM     22  F   UNL     1      45.258  52.630  33.562  0.00  0.00    +0.000 F 
ATOM     23  F   UNL     1      41.959  50.381  37.267  0.00  0.00    +0.000 F 
ATOM     24  F   UNL     1      41.281  50.345  34.616  0.00  0.00    +0.000 F 
ATOM     25  C   UNL     1      44.814  52.127  35.836  0.00  0.00    +0.000 A 
ATOM     26  C   UNL     1      44.456  52.072  34.481  0.00  0.00    +0.000 A 
ATOM     27  C   UNL     1      43.965  51.525  36.777  0.00  0.00    +0.000 A 
ATOM     28  C   UNL     1      42.779  50.924  36.357  0.00  0.00    +0.000 A 
ATOM     29  C   UNL     1      43.276  51.467  34.060  0.00  0.00    +0.000 A 
ATOM     30  C   UNL     1      42.435  50.903  35.008  0.00  0.00    +0.000 A 
ENDBRANCH  21  25
ENDBRANCH  17  21
ENDBRANCH   1  17
TORSDOF 6
ENDMDL
MODEL 7
REMARK VINA RESULT:      -7.1      5.874      9.248
REMARK  Name = 4369359
REMARK  6 active torsions:
REMARK  status: ('A' for Active; 'I' for Inactive)
REMARK    1  A    between atoms: N_11  and  C_18
REMARK    2  A    between atoms: C_17  and  C_18
REMARK    3  A    between atoms: C_17  and  C_19
REMARK    4  A    between atoms: C_18  and  C_20
REMARK    5  A    between atoms: C_20  and  C_22
REMARK    6  A    between atoms: C_21  and  C_23
REMARK                            x       y       z     vdW  Elec       q    Type
REMARK                         _______ _______ _______ _____ _____    ______ ____
ROOT
ATOM      1  C   UNL     1      46.048  77.646  50.687  0.00  0.00    +0.000 C 
ENDROOT
BRANCH   1  11
ATOM      2  O   UNL     1      46.794  78.446  52.831  0.00  0.00    +0.000 OA
ATOM      3  N   UNL     1      44.587  78.807  52.334  0.00  0.00    +0.000 N 
ATOM      4  N   UNL     1      41.990  79.170  53.289  0.00  0.00    +0.000 N 
ATOM      5  N   UNL     1      41.026  79.036  51.335  0.00  0.00    +0.000 NA
ATOM      6  N   UNL     1      40.053  79.116  52.300  0.00  0.00    +0.000 NA
ATOM      7  C   UNL     1      44.402  79.533  53.592  0.00  0.00    +0.000 C 
ATOM      8  C   UNL     1      43.067  79.185  54.251  0.00  0.00    +0.000 C 
ATOM      9  C   UNL     1      43.548  79.015  51.316  0.00  0.00    +0.000 C 
ATOM     10  C   UNL     1      42.196  79.064  51.937  0.00  0.00    +0.000 A 
ATOM     11  C   UNL     1      45.865  78.333  52.033  0.00  0.00    +0.000 C 
ATOM     12  C   UNL     1      40.635  79.196  53.486  0.00  0.00    +0.000 A 
BRANCH  12  16
ATOM     13  F   UNL     1      40.255  78.243  55.625  0.00  0.00    +0.000 F 
ATOM     14  F   UNL     1      38.605  79.302  54.693  0.00  0.00    +0.000 F 
ATOM     15  F   UNL     1      40.312  80.410  55.486  0.00  0.00    +0.000 F 
ATOM     16  C   UNL     1      39.957  79.289  54.807  0.00  0.00    +0.000 C 
ENDBRANCH  12  16
ENDBRANCH   1  11
BRANCH   1  17
ATOM     17  C   UNL     1      46.420  76.149  50.786  0.00  0.00    +0.000 C 
BRANCH  17  18
ATOM     18  N   UNL     1      46.345  75.794  52.219  0.00  0.00    +0.000 NA
ATOM     19  H   UNL     1      47.272  75.519  52.555  0.00  0.00    +0.000 HD
ATOM     20  H   UNL     1      45.770  74.958  52.331  0.00  0.00    +0.000 HD
ENDBRANCH  17  18
BRANCH  17  21
ATOM     21  C   UNL     1      47.819  75.853  50.191  0.00  0.00    +0.000 C 
BRANCH  21  25
ATOM     22  F   UNL     1      47.907  77.336  47.774  0.00  0.00    +0.000 F 
ATOM     23  F   UNL     1      51.356  78.889  51.693  0.00  0.00    +0.000 F 
ATOM     24  F   UNL     1      51.396  80.126  49.252  0.00  0.00    +0.000 F 
ATOM     25  C   UNL     1      48.723  77.049  49.981  0.00  0.00    +0.000 A 
ATOM     26  C   UNL     1      48.747  77.716  48.748  0.00  0.00    +0.000 A 
ATOM     27  C   UNL     1      49.602  77.474  50.989  0.00  0.00    +0.000 A 
ATOM     28  C   UNL     1      50.497  78.513  50.736  0.00  0.00    +0.000 A 
ATOM     29  C   UNL     1      49.634  78.758  48.496  0.00  0.00    +0.000 A 
ATOM     30  C   UNL     1      50.516  79.144  49.495  0.00  0.00    +0.000 A 
ENDBRANCH  21  25
ENDBRANCH  17  21
ENDBRANCH   1  17
TORSDOF 6
ENDMDL
MODEL 8
REMARK VINA RESULT:      -7.0     25.393     28.301
REMARK  Name = 4369359
REMARK  6 active torsions:
REMARK  status: ('A' for Active; 'I' for Inactive)
REMARK    1  A    between atoms: N_11  and  C_18
REMARK    2  A    between atoms: C_17  and  C_18
REMARK    3  A    between atoms: C_17  and  C_19
REMARK    4  A    between atoms: C_18  and  C_20
REMARK    5  A    between atoms: C_20  and  C_22
REMARK    6  A    between atoms: C_21  and  C_23
REMARK                            x       y       z     vdW  Elec       q    Type
REMARK                         _______ _______ _______ _____ _____    ______ ____
ROOT
ATOM      1  C   UNL     1      40.196  52.211  41.677  0.00  0.00    +0.000 C 
ENDROOT
BRANCH   1  11
ATOM      2  O   UNL     1      37.875  52.667  42.125  0.00  0.00    +0.000 OA
ATOM      3  N   UNL     1      38.362  51.891  40.025  0.00  0.00    +0.000 N 
ATOM      4  N   UNL     1      37.483  50.510  37.764  0.00  0.00    +0.000 N 
ATOM      5  N   UNL     1      39.440  50.414  36.802  0.00  0.00    +0.000 NA
ATOM      6  N   UNL     1      38.546  49.685  36.056  0.00  0.00    +0.000 NA
ATOM      7  C   UNL     1      36.959  52.024  39.628  0.00  0.00    +0.000 C 
ATOM      8  C   UNL     1      36.502  50.844  38.771  0.00  0.00    +0.000 C 
ATOM      9  C   UNL     1      39.329  51.771  38.924  0.00  0.00    +0.000 C 
ATOM     10  C   UNL     1      38.794  50.907  37.837  0.00  0.00    +0.000 A 
ATOM     11  C   UNL     1      38.720  52.291  41.313  0.00  0.00    +0.000 C 
ATOM     12  C   UNL     1      37.359  49.741  36.638  0.00  0.00    +0.000 A 
BRANCH  12  16
ATOM     13  F   UNL     1      35.709  48.074  36.992  0.00  0.00    +0.000 F 
ATOM     14  F   UNL     1      36.237  48.540  34.938  0.00  0.00    +0.000 F 
ATOM     15  F   UNL     1      35.066  49.956  36.118  0.00  0.00    +0.000 F 
ATOM     16  C   UNL     1      36.107  49.087  36.174  0.00  0.00    +0.000 C 
ENDBRANCH  12  16
ENDBRANCH   1  11
BRANCH   1  17
ATOM     17  C   UNL     1      40.498  51.327  42.908  0.00  0.00    +0.000 C 
BRANCH  17  18
ATOM     18  N   UNL     1      41.962  51.376  43.109  0.00  0.00    +0.000 NA
ATOM     19  H   UNL     1      42.404  51.831  42.305  0.00  0.00    +0.000 HD
ATOM     20  H   UNL     1      42.335  50.426  43.108  0.00  0.00    +0.000 HD
ENDBRANCH  17  18
BRANCH  17  21
ATOM     21  C   UNL     1      39.990  49.875  42.723  0.00  0.00    +0.000 C 
BRANCH  21  25
ATOM     22  F   UNL     1      40.860  47.852  44.512  0.00  0.00    +0.000 F 
ATOM     23  F   UNL     1      35.738  49.597  45.137  0.00  0.00    +0.000 F 
ATOM     24  F   UNL     1      36.700  47.560  46.692  0.00  0.00    +0.000 F 
ATOM     25  C   UNL     1      39.127  49.322  43.837  0.00  0.00    +0.000 A 
ATOM     26  C   UNL     1      39.603  48.294  44.663  0.00  0.00    +0.000 A 
ATOM     27  C   UNL     1      37.812  49.775  44.023  0.00  0.00    +0.000 A 
ATOM     28  C   UNL     1      37.003  49.179  44.989  0.00  0.00    +0.000 A 
ATOM     29  C   UNL     1      38.799  47.703  45.633  0.00  0.00    +0.000 A 
ATOM     30  C   UNL     1      37.493  48.145  45.782  0.00  0.00    +0.000 A 
ENDBRANCH  21  25
ENDBRANCH  17  21
ENDBRANCH   1  17
TORSDOF 6
ENDMDL
MODEL 9
REMARK VINA RESULT:      -7.0     26.061     27.844
REMARK  Name = 4369359
REMARK  6 active torsions:
REMARK  status: ('A' for Active; 'I' for Inactive)
REMARK    1  A    between atoms: N_11  and  C_18
REMARK    2  A    between atoms: C_17  and  C_18
REMARK    3  A    between atoms: C_17  and  C_19
REMARK    4  A    between atoms: C_18  and  C_20
REMARK    5  A    between atoms: C_20  and  C_22
REMARK    6  A    between atoms: C_21  and  C_23
REMARK                            x       y       z     vdW  Elec       q    Type
REMARK                         _______ _______ _______ _____ _____    ______ ____
ROOT
ATOM      1  C   UNL     1      38.855  51.754  42.070  0.00  0.00    +0.000 C 
ENDROOT
BRANCH   1  11
ATOM      2  O   UNL     1      36.487  51.699  41.642  0.00  0.00    +0.000 OA
ATOM      3  N   UNL     1      37.227  50.405  43.381  0.00  0.00    +0.000 N 
ATOM      4  N   UNL     1      36.643  49.199  45.831  0.00  0.00    +0.000 N 
ATOM      5  N   UNL     1      38.697  48.600  46.265  0.00  0.00    +0.000 NA
ATOM      6  N   UNL     1      37.912  48.304  47.353  0.00  0.00    +0.000 NA
ATOM      7  C   UNL     1      35.873  49.892  43.602  0.00  0.00    +0.000 C 
ATOM      8  C   UNL     1      35.547  49.782  45.091  0.00  0.00    +0.000 C 
ATOM      9  C   UNL     1      38.313  49.627  43.994  0.00  0.00    +0.000 C 
ATOM     10  C   UNL     1      37.926  49.147  45.349  0.00  0.00    +0.000 A 
ATOM     11  C   UNL     1      37.427  51.292  42.323  0.00  0.00    +0.000 C 
ATOM     12  C   UNL     1      36.667  48.667  47.092  0.00  0.00    +0.000 A 
BRANCH  12  16
ATOM     13  F   UNL     1      34.900  49.733  48.262  0.00  0.00    +0.000 F 
ATOM     14  F   UNL     1      35.825  48.008  49.201  0.00  0.00    +0.000 F 
ATOM     15  F   UNL     1      34.524  47.747  47.465  0.00  0.00    +0.000 F 
ATOM     16  C   UNL     1      35.493  48.537  47.996  0.00  0.00    +0.000 C 
ENDBRANCH  12  16
ENDBRANCH   1  11
BRANCH   1  17
ATOM     17  C   UNL     1      39.507  51.138  40.812  0.00  0.00    +0.000 C 
BRANCH  17  18
ATOM     18  N   UNL     1      40.959  51.078  41.080  0.00  0.00    +0.000 NA
ATOM     19  H   UNL     1      41.150  51.432  42.021  0.00  0.00    +0.000 HD
ATOM     20  H   UNL     1      41.445  51.724  40.456  0.00  0.00    +0.000 HD
ENDBRANCH  17  18
BRANCH  17  21
ATOM     21  C   UNL     1      39.190  51.951  39.531  0.00  0.00    +0.000 C 
BRANCH  21  25
ATOM     22  F   UNL     1      40.833  50.699  37.587  0.00  0.00    +0.000 F 
ATOM     23  F   UNL     1      35.454  50.317  36.820  0.00  0.00    +0.000 F 
ATOM     24  F   UNL     1      37.187  49.279  34.973  0.00  0.00    +0.000 F 
ATOM     25  C   UNL     1      38.641  51.166  38.360  0.00  0.00    +0.000 A 
ATOM     26  C   UNL     1      39.507  50.603  37.411  0.00  0.00    +0.000 A 
ATOM     27  C   UNL     1      37.258  51.041  38.159  0.00  0.00    +0.000 A 
ATOM     28  C   UNL     1      36.776  50.402  37.018  0.00  0.00    +0.000 A 
ATOM     29  C   UNL     1      39.028  49.958  36.275  0.00  0.00    +0.000 A 
ATOM     30  C   UNL     1      37.657  49.871  36.080  0.00  0.00    +0.000 A 
ENDBRANCH  21  25
ENDBRANCH  17  21
ENDBRANCH   1  17
TORSDOF 6
ENDMDL
