MODEL 1
REMARK VINA RESULT:      -7.9      0.000      0.000
REMARK  Name = 11258174
REMARK  6 active torsions:
REMARK  status: ('A' for Active; 'I' for Inactive)
REMARK    1  A    between atoms: N_11  and  C_18
REMARK    2  A    between atoms: C_17  and  C_18
REMARK    3  A    between atoms: C_17  and  C_19
REMARK    4  A    between atoms: C_18  and  C_21
REMARK    5  A    between atoms: C_20  and  C_23
REMARK    6  A    between atoms: C_21  and  C_22
REMARK                            x       y       z     vdW  Elec       q    Type
REMARK                         _______ _______ _______ _____ _____    ______ ____
ROOT
ATOM      1  O   UNL     1      53.441  71.413  38.838  0.00  0.00    +0.000 OA
ATOM      2  N   UNL     1      54.227  69.717  40.174  0.00  0.00    +0.000 N 
ATOM      3  N   UNL     1      55.749  70.674  42.514  0.00  0.00    +0.000 N 
ATOM      4  N   UNL     1      54.228  72.237  42.703  0.00  0.00    +0.000 NA
ATOM      5  N   UNL     1      55.350  72.655  43.360  0.00  0.00    +0.000 NA
ATOM      6  C   UNL     1      54.893  68.432  40.374  0.00  0.00    +0.000 C 
ATOM      7  C   UNL     1      55.529  68.259  41.757  0.00  0.00    +0.000 C 
ATOM      8  C   UNL     1      56.419  69.429  42.181  0.00  0.00    +0.000 C 
ATOM      9  C   UNL     1      53.523  70.287  41.322  0.00  0.00    +0.000 C 
ATOM     10  C   UNL     1      54.477  71.063  42.163  0.00  0.00    +0.000 A 
ATOM     11  C   UNL     1      54.090  70.370  38.947  0.00  0.00    +0.000 C 
ATOM     12  C   UNL     1      56.284  71.731  43.228  0.00  0.00    +0.000 A 
ENDROOT
BRANCH  12  16
ATOM     13  F   UNL     1      58.543  70.998  43.115  0.00  0.00    +0.000 F 
ATOM     14  F   UNL     1      57.741  71.495  45.072  0.00  0.00    +0.000 F 
ATOM     15  F   UNL     1      58.186  73.075  43.632  0.00  0.00    +0.000 F 
ATOM     16  C   UNL     1      57.671  71.823  43.756  0.00  0.00    +0.000 C 
ENDBRANCH  12  16
BRANCH  11  17
ATOM     17  C   UNL     1      54.766  69.748  37.733  0.00  0.00    +0.000 C 
BRANCH  17  18
ATOM     18  C   UNL     1      56.025  70.519  37.266  0.00  0.00    +0.000 C 
BRANCH  18  19
ATOM     19  N   UNL     1      55.730  71.046  35.916  0.00  0.00    +0.000 NA
ATOM     20  H   UNL     1      56.606  71.246  35.427  0.00  0.00    +0.000 HD
ATOM     21  H   UNL     1      55.279  71.957  36.014  0.00  0.00    +0.000 HD
ENDBRANCH  18  19
BRANCH  18  22
ATOM     22  C   UNL     1      57.293  69.624  37.274  0.00  0.00    +0.000 C 
BRANCH  22  25
ATOM     23  F   UNL     1      59.941  68.655  36.983  0.00  0.00    +0.000 F 
ATOM     24  F   UNL     1      59.172  72.406  40.849  0.00  0.00    +0.000 F 
ATOM     25  C   UNL     1      58.454  70.124  38.101  0.00  0.00    +0.000 A 
ATOM     26  C   UNL     1      59.737  69.580  37.932  0.00  0.00    +0.000 A 
ATOM     27  C   UNL     1      58.280  71.099  39.094  0.00  0.00    +0.000 A 
ATOM     28  C   UNL     1      59.356  71.485  39.891  0.00  0.00    +0.000 A 
ATOM     29  C   UNL     1      60.811  69.966  38.731  0.00  0.00    +0.000 A 
ATOM     30  C   UNL     1      60.617  70.927  39.723  0.00  0.00    +0.000 A 
ENDBRANCH  22  25
ENDBRANCH  18  22
ENDBRANCH  17  18
ENDBRANCH  11  17
TORSDOF 6
ENDMDL
MODEL 2
REMARK VINA RESULT:      -7.8     20.463     22.415
REMARK  Name = 11258174
REMARK  6 active torsions:
REMARK  status: ('A' for Active; 'I' for Inactive)
REMARK    1  A    between atoms: N_11  and  C_18
REMARK    2  A    between atoms: C_17  and  C_18
REMARK    3  A    between atoms: C_17  and  C_19
REMARK    4  A    between atoms: C_18  and  C_21
REMARK    5  A    between atoms: C_20  and  C_23
REMARK    6  A    between atoms: C_21  and  C_22
REMARK                            x       y       z     vdW  Elec       q    Type
REMARK                         _______ _______ _______ _____ _____    ______ ____
ROOT
ATOM      1  O   UNL     1      50.162  53.257  34.801  0.00  0.00    +0.000 OA
ATOM      2  N   UNL     1      50.182  51.286  35.981  0.00  0.00    +0.000 N 
ATOM      3  N   UNL     1      52.868  50.086  36.216  0.00  0.00    +0.000 N 
ATOM      4  N   UNL     1      53.607  52.119  36.553  0.00  0.00    +0.000 NA
ATOM      5  N   UNL     1      54.657  51.349  36.140  0.00  0.00    +0.000 NA
ATOM      6  C   UNL     1      49.656  49.959  36.290  0.00  0.00    +0.000 C 
ATOM      7  C   UNL     1      50.678  49.004  36.914  0.00  0.00    +0.000 C 
ATOM      8  C   UNL     1      52.000  48.924  36.148  0.00  0.00    +0.000 C 
ATOM      9  C   UNL     1      51.156  51.849  36.915  0.00  0.00    +0.000 C 
ATOM     10  C   UNL     1      52.524  51.371  36.566  0.00  0.00    +0.000 A 
ATOM     11  C   UNL     1      49.728  52.114  34.951  0.00  0.00    +0.000 C 
ATOM     12  C   UNL     1      54.215  50.126  35.906  0.00  0.00    +0.000 A 
ENDROOT
BRANCH  12  16
ATOM     13  F   UNL     1      54.475  48.377  34.318  0.00  0.00    +0.000 F 
ATOM     14  F   UNL     1      55.218  48.031  36.330  0.00  0.00    +0.000 F 
ATOM     15  F   UNL     1      56.268  49.398  34.990  0.00  0.00    +0.000 F 
ATOM     16  C   UNL     1      55.034  48.997  35.393  0.00  0.00    +0.000 C 
ENDBRANCH  12  16
BRANCH  11  17
ATOM     17  C   UNL     1      48.666  51.558  34.012  0.00  0.00    +0.000 C 
BRANCH  17  18
ATOM     18  C   UNL     1      47.383  52.422  33.952  0.00  0.00    +0.000 C 
BRANCH  18  19
ATOM     19  N   UNL     1      47.742  53.675  33.253  0.00  0.00    +0.000 NA
ATOM     20  H   UNL     1      47.416  54.477  33.798  0.00  0.00    +0.000 HD
ATOM     21  H   UNL     1      47.210  53.727  32.383  0.00  0.00    +0.000 HD
ENDBRANCH  18  19
BRANCH  18  22
ATOM     22  C   UNL     1      46.796  52.694  35.363  0.00  0.00    +0.000 C 
BRANCH  22  25
ATOM     23  F   UNL     1      44.481  53.043  33.766  0.00  0.00    +0.000 F 
ATOM     24  F   UNL     1      43.899  49.916  38.180  0.00  0.00    +0.000 F 
ATOM     25  C   UNL     1      45.472  52.036  35.669  0.00  0.00    +0.000 A 
ATOM     26  C   UNL     1      44.352  52.275  34.857  0.00  0.00    +0.000 A 
ATOM     27  C   UNL     1      45.304  51.216  36.794  0.00  0.00    +0.000 A 
ATOM     28  C   UNL     1      44.050  50.684  37.091  0.00  0.00    +0.000 A 
ATOM     29  C   UNL     1      43.100  51.743  35.156  0.00  0.00    +0.000 A 
ATOM     30  C   UNL     1      42.947  50.942  36.287  0.00  0.00    +0.000 A 
ENDBRANCH  22  25
ENDBRANCH  18  22
ENDBRANCH  17  18
ENDBRANCH  11  17
TORSDOF 6
ENDMDL
MODEL 3
REMARK VINA RESULT:      -7.7      4.240      6.112
REMARK  Name = 11258174
REMARK  6 active torsions:
REMARK  status: ('A' for Active; 'I' for Inactive)
REMARK    1  A    between atoms: N_11  and  C_18
REMARK    2  A    between atoms: C_17  and  C_18
REMARK    3  A    between atoms: C_17  and  C_19
REMARK    4  A    between atoms: C_18  and  C_21
REMARK    5  A    between atoms: C_20  and  C_23
REMARK    6  A    between atoms: C_21  and  C_22
REMARK                            x       y       z     vdW  Elec       q    Type
REMARK                         _______ _______ _______ _____ _____    ______ ____
ROOT
ATOM      1  O   UNL     1      55.793  72.228  39.387  0.00  0.00    +0.000 OA
ATOM      2  N   UNL     1      54.494  70.495  38.623  0.00  0.00    +0.000 N 
ATOM      3  N   UNL     1      51.712  71.285  38.032  0.00  0.00    +0.000 N 
ATOM      4  N   UNL     1      52.550  73.113  37.166  0.00  0.00    +0.000 NA
ATOM      5  N   UNL     1      51.242  73.351  37.476  0.00  0.00    +0.000 NA
ATOM      6  C   UNL     1      53.999  69.122  38.691  0.00  0.00    +0.000 C 
ATOM      7  C   UNL     1      52.624  68.914  38.047  0.00  0.00    +0.000 C 
ATOM      8  C   UNL     1      51.566  69.920  38.506  0.00  0.00    +0.000 C 
ATOM      9  C   UNL     1      54.190  71.252  37.409  0.00  0.00    +0.000 C 
ATOM     10  C   UNL     1      52.845  71.883  37.532  0.00  0.00    +0.000 A 
ATOM     11  C   UNL     1      55.348  71.091  39.553  0.00  0.00    +0.000 C 
ATOM     12  C   UNL     1      50.734  72.263  38.025  0.00  0.00    +0.000 A 
ENDROOT
BRANCH  12  16
ATOM     13  F   UNL     1      48.615  73.264  38.422  0.00  0.00    +0.000 F 
ATOM     14  F   UNL     1      49.330  71.808  39.868  0.00  0.00    +0.000 F 
ATOM     15  F   UNL     1      48.648  71.158  37.899  0.00  0.00    +0.000 F 
ATOM     16  C   UNL     1      49.350  72.125  38.548  0.00  0.00    +0.000 C 
ENDBRANCH  12  16
BRANCH  11  17
ATOM     17  C   UNL     1      55.721  70.285  40.789  0.00  0.00    +0.000 C 
BRANCH  17  18
ATOM     18  C   UNL     1      55.399  71.010  42.119  0.00  0.00    +0.000 C 
BRANCH  18  19
ATOM     19  N   UNL     1      55.135  72.426  41.783  0.00  0.00    +0.000 NA
ATOM     20  H   UNL     1      55.889  72.784  41.192  0.00  0.00    +0.000 HD
ATOM     21  H   UNL     1      55.198  72.980  42.638  0.00  0.00    +0.000 HD
ENDBRANCH  18  19
BRANCH  18  22
ATOM     22  C   UNL     1      56.546  70.864  43.155  0.00  0.00    +0.000 C 
BRANCH  22  25
ATOM     23  F   UNL     1      57.449  73.463  43.836  0.00  0.00    +0.000 F 
ATOM     24  F   UNL     1      60.810  70.487  40.762  0.00  0.00    +0.000 F 
ATOM     25  C   UNL     1      57.891  71.410  42.737  0.00  0.00    +0.000 A 
ATOM     26  C   UNL     1      58.267  72.718  43.079  0.00  0.00    +0.000 A 
ATOM     27  C   UNL     1      58.777  70.655  41.956  0.00  0.00    +0.000 A 
ATOM     28  C   UNL     1      59.979  71.214  41.524  0.00  0.00    +0.000 A 
ATOM     29  C   UNL     1      59.468  73.275  42.645  0.00  0.00    +0.000 A 
ATOM     30  C   UNL     1      60.332  72.516  41.856  0.00  0.00    +0.000 A 
ENDBRANCH  22  25
ENDBRANCH  18  22
ENDBRANCH  17  18
ENDBRANCH  11  17
TORSDOF 6
ENDMDL
MODEL 4
REMARK VINA RESULT:      -7.5      4.664      6.092
REMARK  Name = 11258174
REMARK  6 active torsions:
REMARK  status: ('A' for Active; 'I' for Inactive)
REMARK    1  A    between atoms: N_11  and  C_18
REMARK    2  A    between atoms: C_17  and  C_18
REMARK    3  A    between atoms: C_17  and  C_19
REMARK    4  A    between atoms: C_18  and  C_21
REMARK    5  A    between atoms: C_20  and  C_23
REMARK    6  A    between atoms: C_21  and  C_22
REMARK                            x       y       z     vdW  Elec       q    Type
REMARK                         _______ _______ _______ _____ _____    ______ ____
ROOT
ATOM      1  O   UNL     1      53.621  72.015  37.816  0.00  0.00    +0.000 OA
ATOM      2  N   UNL     1      52.108  70.358  38.309  0.00  0.00    +0.000 N 
ATOM      3  N   UNL     1      49.627  71.365  39.549  0.00  0.00    +0.000 N 
ATOM      4  N   UNL     1      49.729  73.014  38.112  0.00  0.00    +0.000 NA
ATOM      5  N   UNL     1      48.942  73.409  39.156  0.00  0.00    +0.000 NA
ATOM      6  C   UNL     1      51.754  69.054  38.863  0.00  0.00    +0.000 C 
ATOM      7  C   UNL     1      50.289  68.926  39.292  0.00  0.00    +0.000 C 
ATOM      8  C   UNL     1      49.802  70.071  40.183  0.00  0.00    +0.000 C 
ATOM      9  C   UNL     1      51.099  71.028  37.489  0.00  0.00    +0.000 C 
ATOM     10  C   UNL     1      50.171  71.799  38.363  0.00  0.00    +0.000 A 
ATOM     11  C   UNL     1      53.372  70.948  38.380  0.00  0.00    +0.000 C 
ATOM     12  C   UNL     1      48.896  72.431  40.042  0.00  0.00    +0.000 A 
ENDROOT
BRANCH  12  16
ATOM     13  F   UNL     1      47.086  71.678  41.387  0.00  0.00    +0.000 F 
ATOM     14  F   UNL     1      47.748  73.732  41.644  0.00  0.00    +0.000 F 
ATOM     15  F   UNL     1      48.973  72.080  42.378  0.00  0.00    +0.000 F 
ATOM     16  C   UNL     1      48.184  72.481  41.346  0.00  0.00    +0.000 C 
ENDBRANCH  12  16
BRANCH  11  17
ATOM     17  C   UNL     1      54.447  70.224  39.179  0.00  0.00    +0.000 C 
BRANCH  17  18
ATOM     18  C   UNL     1      55.663  71.118  39.527  0.00  0.00    +0.000 C 
BRANCH  18  19
ATOM     19  N   UNL     1      56.338  71.441  38.251  0.00  0.00    +0.000 NA
ATOM     20  H   UNL     1      55.917  72.278  37.843  0.00  0.00    +0.000 HD
ATOM     21  H   UNL     1      56.135  70.700  37.579  0.00  0.00    +0.000 HD
ENDBRANCH  18  19
BRANCH  18  22
ATOM     22  C   UNL     1      56.624  70.428  40.533  0.00  0.00    +0.000 C 
BRANCH  22  25
ATOM     23  F   UNL     1      55.272  71.139  42.921  0.00  0.00    +0.000 F 
ATOM     24  F   UNL     1      60.225  73.287  42.237  0.00  0.00    +0.000 F 
ATOM     25  C   UNL     1      57.228  71.319  41.592  0.00  0.00    +0.000 A 
ATOM     26  C   UNL     1      56.494  71.661  42.739  0.00  0.00    +0.000 A 
ATOM     27  C   UNL     1      58.507  71.872  41.441  0.00  0.00    +0.000 A 
ATOM     28  C   UNL     1      59.007  72.750  42.402  0.00  0.00    +0.000 A 
ATOM     29  C   UNL     1      56.995  72.540  43.697  0.00  0.00    +0.000 A 
ATOM     30  C   UNL     1      58.264  73.093  43.524  0.00  0.00    +0.000 A 
ENDBRANCH  22  25
ENDBRANCH  18  22
ENDBRANCH  17  18
ENDBRANCH  11  17
TORSDOF 6
ENDMDL
MODEL 5
REMARK VINA RESULT:      -7.4     20.842     23.546
REMARK  Name = 11258174
REMARK  6 active torsions:
REMARK  status: ('A' for Active; 'I' for Inactive)
REMARK    1  A    between atoms: N_11  and  C_18
REMARK    2  A    between atoms: C_17  and  C_18
REMARK    3  A    between atoms: C_17  and  C_19
REMARK    4  A    between atoms: C_18  and  C_21
REMARK    5  A    between atoms: C_20  and  C_23
REMARK    6  A    between atoms: C_21  and  C_22
REMARK                            x       y       z     vdW  Elec       q    Type
REMARK                         _______ _______ _______ _____ _____    ______ ____
ROOT
ATOM      1  O   UNL     1      46.418  53.429  34.254  0.00  0.00    +0.000 OA
ATOM      2  N   UNL     1      47.314  52.189  35.967  0.00  0.00    +0.000 N 
ATOM      3  N   UNL     1      50.009  51.142  35.374  0.00  0.00    +0.000 N 
ATOM      4  N   UNL     1      50.427  53.090  34.468  0.00  0.00    +0.000 NA
ATOM      5  N   UNL     1      51.318  52.187  33.962  0.00  0.00    +0.000 NA
ATOM      6  C   UNL     1      47.231  51.154  36.995  0.00  0.00    +0.000 C 
ATOM      7  C   UNL     1      48.582  50.547  37.390  0.00  0.00    +0.000 C 
ATOM      8  C   UNL     1      49.431  50.096  36.200  0.00  0.00    +0.000 C 
ATOM      9  C   UNL     1      48.473  53.081  36.014  0.00  0.00    +0.000 C 
ATOM     10  C   UNL     1      49.617  52.458  35.290  0.00  0.00    +0.000 A 
ATOM     11  C   UNL     1      46.314  52.485  35.039  0.00  0.00    +0.000 C 
ATOM     12  C   UNL     1      51.056  51.001  34.482  0.00  0.00    +0.000 A 
ENDROOT
BRANCH  12  16
ATOM     13  F   UNL     1      52.691  49.887  33.164  0.00  0.00    +0.000 F 
ATOM     14  F   UNL     1      50.916  48.768  33.727  0.00  0.00    +0.000 F 
ATOM     15  F   UNL     1      52.441  49.234  35.218  0.00  0.00    +0.000 F 
ATOM     16  C   UNL     1      51.766  49.738  34.152  0.00  0.00    +0.000 C 
ENDBRANCH  12  16
BRANCH  11  17
ATOM     17  C   UNL     1      45.075  51.600  35.027  0.00  0.00    +0.000 C 
BRANCH  17  18
ATOM     18  C   UNL     1      43.830  52.290  34.417  0.00  0.00    +0.000 C 
BRANCH  18  19
ATOM     19  N   UNL     1      43.493  53.427  35.300  0.00  0.00    +0.000 NA
ATOM     20  H   UNL     1      43.664  54.307  34.807  0.00  0.00    +0.000 HD
ATOM     21  H   UNL     1      44.152  53.440  36.080  0.00  0.00    +0.000 HD
ENDBRANCH  18  19
BRANCH  18  22
ATOM     22  C   UNL     1      42.639  51.308  34.257  0.00  0.00    +0.000 C 
BRANCH  22  25
ATOM     23  F   UNL     1      40.242  52.728  34.781  0.00  0.00    +0.000 F 
ATOM     24  F   UNL     1      41.784  49.144  38.574  0.00  0.00    +0.000 F 
ATOM     25  C   UNL     1      41.795  51.082  35.489  0.00  0.00    +0.000 A 
ATOM     26  C   UNL     1      40.634  51.841  35.707  0.00  0.00    +0.000 A 
ATOM     27  C   UNL     1      42.167  50.154  36.472  0.00  0.00    +0.000 A 
ATOM     28  C   UNL     1      41.407  50.023  37.633  0.00  0.00    +0.000 A 
ATOM     29  C   UNL     1      39.877  51.709  36.869  0.00  0.00    +0.000 A 
ATOM     30  C   UNL     1      40.269  50.792  37.843  0.00  0.00    +0.000 A 
ENDBRANCH  22  25
ENDBRANCH  18  22
ENDBRANCH  17  18
ENDBRANCH  11  17
TORSDOF 6
ENDMDL
MODEL 6
REMARK VINA RESULT:      -7.3     20.659     23.426
REMARK  Name = 11258174
REMARK  6 active torsions:
REMARK  status: ('A' for Active; 'I' for Inactive)
REMARK    1  A    between atoms: N_11  and  C_18
REMARK    2  A    between atoms: C_17  and  C_18
REMARK    3  A    between atoms: C_17  and  C_19
REMARK    4  A    between atoms: C_18  and  C_21
REMARK    5  A    between atoms: C_20  and  C_23
REMARK    6  A    between atoms: C_21  and  C_22
REMARK                            x       y       z     vdW  Elec       q    Type
REMARK                         _______ _______ _______ _____ _____    ______ ____
ROOT
ATOM      1  O   UNL     1      46.985  53.724  34.942  0.00  0.00    +0.000 OA
ATOM      2  N   UNL     1      47.975  52.209  36.357  0.00  0.00    +0.000 N 
ATOM      3  N   UNL     1      50.590  51.239  35.395  0.00  0.00    +0.000 N 
ATOM      4  N   UNL     1      50.989  53.304  34.786  0.00  0.00    +0.000 NA
ATOM      5  N   UNL     1      51.816  52.485  34.073  0.00  0.00    +0.000 NA
ATOM      6  C   UNL     1      47.943  51.022  37.207  0.00  0.00    +0.000 C 
ATOM      7  C   UNL     1      49.303  50.341  37.392  0.00  0.00    +0.000 C 
ATOM      8  C   UNL     1      50.050  50.080  36.082  0.00  0.00    +0.000 C 
ATOM      9  C   UNL     1      49.156  53.067  36.457  0.00  0.00    +0.000 C 
ATOM     10  C   UNL     1      50.227  52.556  35.556  0.00  0.00    +0.000 A 
ATOM     11  C   UNL     1      46.916  52.665  35.569  0.00  0.00    +0.000 C 
ATOM     12  C   UNL     1      51.564  51.233  34.412  0.00  0.00    +0.000 A 
ENDROOT
BRANCH  12  16
ATOM     13  F   UNL     1      51.340  49.027  33.556  0.00  0.00    +0.000 F 
ATOM     14  F   UNL     1      53.151  49.502  34.658  0.00  0.00    +0.000 F 
ATOM     15  F   UNL     1      52.841  50.307  32.652  0.00  0.00    +0.000 F 
ATOM     16  C   UNL     1      52.216  50.032  33.828  0.00  0.00    +0.000 C 
ENDBRANCH  12  16
BRANCH  11  17
ATOM     17  C   UNL     1      45.657  51.810  35.511  0.00  0.00    +0.000 C 
BRANCH  17  18
ATOM     18  C   UNL     1      44.549  52.275  36.487  0.00  0.00    +0.000 C 
BRANCH  18  19
ATOM     19  N   UNL     1      45.033  53.521  37.123  0.00  0.00    +0.000 NA
ATOM     20  H   UNL     1      44.451  53.739  37.936  0.00  0.00    +0.000 HD
ATOM     21  H   UNL     1      44.872  54.298  36.480  0.00  0.00    +0.000 HD
ENDBRANCH  18  19
BRANCH  18  22
ATOM     22  C   UNL     1      44.203  51.186  37.538  0.00  0.00    +0.000 C 
BRANCH  22  25
ATOM     23  F   UNL     1      43.272  49.144  39.270  0.00  0.00    +0.000 F 
ATOM     24  F   UNL     1      39.976  50.484  35.153  0.00  0.00    +0.000 F 
ATOM     25  C   UNL     1      42.860  50.513  37.378  0.00  0.00    +0.000 A 
ATOM     26  C   UNL     1      42.470  49.485  38.251  0.00  0.00    +0.000 A 
ATOM     27  C   UNL     1      41.991  50.853  36.332  0.00  0.00    +0.000 A 
ATOM     28  C   UNL     1      40.791  50.162  36.168  0.00  0.00    +0.000 A 
ATOM     29  C   UNL     1      41.271  48.795  38.084  0.00  0.00    +0.000 A 
ATOM     30  C   UNL     1      40.424  49.135  37.029  0.00  0.00    +0.000 A 
ENDBRANCH  22  25
ENDBRANCH  18  22
ENDBRANCH  17  18
ENDBRANCH  11  17
TORSDOF 6
ENDMDL
MODEL 7
REMARK VINA RESULT:      -7.2     12.413     14.351
REMARK  Name = 11258174
REMARK  6 active torsions:
REMARK  status: ('A' for Active; 'I' for Inactive)
REMARK    1  A    between atoms: N_11  and  C_18
REMARK    2  A    between atoms: C_17  and  C_18
REMARK    3  A    between atoms: C_17  and  C_19
REMARK    4  A    between atoms: C_18  and  C_21
REMARK    5  A    between atoms: C_20  and  C_23
REMARK    6  A    between atoms: C_21  and  C_22
REMARK                            x       y       z     vdW  Elec       q    Type
REMARK                         _______ _______ _______ _____ _____    ______ ____
ROOT
ATOM      1  O   UNL     1      46.045  72.976  51.297  0.00  0.00    +0.000 OA
ATOM      2  N   UNL     1      46.694  71.392  49.766  0.00  0.00    +0.000 N 
ATOM      3  N   UNL     1      48.888  69.664  50.721  0.00  0.00    +0.000 N 
ATOM      4  N   UNL     1      47.859  69.644  52.654  0.00  0.00    +0.000 NA
ATOM      5  N   UNL     1      49.166  69.311  52.866  0.00  0.00    +0.000 NA
ATOM      6  C   UNL     1      47.067  70.974  48.417  0.00  0.00    +0.000 C 
ATOM      7  C   UNL     1      47.942  69.717  48.364  0.00  0.00    +0.000 C 
ATOM      8  C   UNL     1      49.154  69.765  49.298  0.00  0.00    +0.000 C 
ATOM      9  C   UNL     1      46.422  70.333  50.738  0.00  0.00    +0.000 C 
ATOM     10  C   UNL     1      47.697  69.891  51.371  0.00  0.00    +0.000 A 
ATOM     11  C   UNL     1      46.439  72.706  50.160  0.00  0.00    +0.000 C 
ATOM     12  C   UNL     1      49.803  69.348  51.709  0.00  0.00    +0.000 A 
ENDROOT
BRANCH  12  16
ATOM     13  F   UNL     1      51.901  68.772  52.668  0.00  0.00    +0.000 F 
ATOM     14  F   UNL     1      51.900  70.182  51.015  0.00  0.00    +0.000 F 
ATOM     15  F   UNL     1      51.488  68.068  50.658  0.00  0.00    +0.000 F 
ATOM     16  C   UNL     1      51.255  69.097  51.515  0.00  0.00    +0.000 C 
ENDBRANCH  12  16
BRANCH  11  17
ATOM     17  C   UNL     1      46.658  73.809  49.134  0.00  0.00    +0.000 C 
BRANCH  17  18
ATOM     18  C   UNL     1      46.243  75.213  49.638  0.00  0.00    +0.000 C 
BRANCH  18  19
ATOM     19  N   UNL     1      44.785  75.166  49.888  0.00  0.00    +0.000 NA
ATOM     20  H   UNL     1      44.433  76.115  50.038  0.00  0.00    +0.000 HD
ATOM     21  H   UNL     1      44.622  74.691  50.776  0.00  0.00    +0.000 HD
ENDBRANCH  18  19
BRANCH  18  22
ATOM     22  C   UNL     1      46.622  76.331  48.630  0.00  0.00    +0.000 C 
BRANCH  22  25
ATOM     23  F   UNL     1      45.597  78.248  50.449  0.00  0.00    +0.000 F 
ATOM     24  F   UNL     1      50.761  78.948  48.883  0.00  0.00    +0.000 F 
ATOM     25  C   UNL     1      47.444  77.471  49.181  0.00  0.00    +0.000 A 
ATOM     26  C   UNL     1      46.868  78.408  50.054  0.00  0.00    +0.000 A 
ATOM     27  C   UNL     1      48.780  77.662  48.800  0.00  0.00    +0.000 A 
ATOM     28  C   UNL     1      49.489  78.767  49.269  0.00  0.00    +0.000 A 
ATOM     29  C   UNL     1      47.579  79.512  50.520  0.00  0.00    +0.000 A 
ATOM     30  C   UNL     1      48.902  79.696  50.120  0.00  0.00    +0.000 A 
ENDBRANCH  22  25
ENDBRANCH  18  22
ENDBRANCH  17  18
ENDBRANCH  11  17
TORSDOF 6
ENDMDL
MODEL 8
REMARK VINA RESULT:      -6.4     20.726     23.545
REMARK  Name = 11258174
REMARK  6 active torsions:
REMARK  status: ('A' for Active; 'I' for Inactive)
REMARK    1  A    between atoms: N_11  and  C_18
REMARK    2  A    between atoms: C_17  and  C_18
REMARK    3  A    between atoms: C_17  and  C_19
REMARK    4  A    between atoms: C_18  and  C_21
REMARK    5  A    between atoms: C_20  and  C_23
REMARK    6  A    between atoms: C_21  and  C_22
REMARK                            x       y       z     vdW  Elec       q    Type
REMARK                         _______ _______ _______ _____ _____    ______ ____
ROOT
ATOM      1  O   UNL     1      46.435  57.566  54.999  0.00  0.00    +0.000 OA
ATOM      2  N   UNL     1      46.595  55.586  53.846  0.00  0.00    +0.000 N 
ATOM      3  N   UNL     1      49.176  55.240  52.459  0.00  0.00    +0.000 N 
ATOM      4  N   UNL     1      50.107  56.086  54.250  0.00  0.00    +0.000 NA
ATOM      5  N   UNL     1      50.979  56.232  53.210  0.00  0.00    +0.000 NA
ATOM      6  C   UNL     1      46.066  54.575  52.933  0.00  0.00    +0.000 C 
ATOM      7  C   UNL     1      47.139  53.740  52.225  0.00  0.00    +0.000 C 
ATOM      8  C   UNL     1      48.241  54.575  51.569  0.00  0.00    +0.000 C 
ATOM      9  C   UNL     1      47.793  55.233  54.606  0.00  0.00    +0.000 C 
ATOM     10  C   UNL     1      49.008  55.522  53.794  0.00  0.00    +0.000 A 
ATOM     11  C   UNL     1      45.972  56.797  54.154  0.00  0.00    +0.000 C 
ATOM     12  C   UNL     1      50.416  55.749  52.117  0.00  0.00    +0.000 A 
ENDROOT
BRANCH  12  16
ATOM     13  F   UNL     1      51.225  54.515  50.253  0.00  0.00    +0.000 F 
ATOM     14  F   UNL     1      52.226  56.382  50.738  0.00  0.00    +0.000 F 
ATOM     15  F   UNL     1      50.230  56.401  49.853  0.00  0.00    +0.000 F 
ATOM     16  C   UNL     1      51.017  55.762  50.758  0.00  0.00    +0.000 C 
ENDBRANCH  12  16
BRANCH  11  17
ATOM     17  C   UNL     1      44.688  57.142  53.412  0.00  0.00    +0.000 C 
BRANCH  17  18
ATOM     18  C   UNL     1      43.430  56.463  54.007  0.00  0.00    +0.000 C 
BRANCH  18  19
ATOM     19  N   UNL     1      42.278  57.331  53.679  0.00  0.00    +0.000 NA
ATOM     20  H   UNL     1      41.547  56.774  53.229  0.00  0.00    +0.000 HD
ATOM     21  H   UNL     1      42.567  57.998  52.963  0.00  0.00    +0.000 HD
ENDBRANCH  18  19
BRANCH  18  22
ATOM     22  C   UNL     1      43.562  56.230  55.536  0.00  0.00    +0.000 C 
BRANCH  22  25
ATOM     23  F   UNL     1      43.977  58.948  56.224  0.00  0.00    +0.000 F 
ATOM     24  F   UNL     1      39.569  56.579  58.362  0.00  0.00    +0.000 F 
ATOM     25  C   UNL     1      42.616  57.016  56.412  0.00  0.00    +0.000 A 
ATOM     26  C   UNL     1      42.894  58.351  56.743  0.00  0.00    +0.000 A 
ATOM     27  C   UNL     1      41.468  56.428  56.963  0.00  0.00    +0.000 A 
ATOM     28  C   UNL     1      40.655  57.159  57.828  0.00  0.00    +0.000 A 
ATOM     29  C   UNL     1      42.080  59.079  57.609  0.00  0.00    +0.000 A 
ATOM     30  C   UNL     1      40.951  58.475  58.160  0.00  0.00    +0.000 A 
ENDBRANCH  22  25
ENDBRANCH  18  22
ENDBRANCH  17  18
ENDBRANCH  11  17
TORSDOF 6
ENDMDL
MODEL 9
REMARK VINA RESULT:      -6.0     21.690     24.409
REMARK  Name = 11258174
REMARK  6 active torsions:
REMARK  status: ('A' for Active; 'I' for Inactive)
REMARK    1  A    between atoms: N_11  and  C_18
REMARK    2  A    between atoms: C_17  and  C_18
REMARK    3  A    between atoms: C_17  and  C_19
REMARK    4  A    between atoms: C_18  and  C_21
REMARK    5  A    between atoms: C_20  and  C_23
REMARK    6  A    between atoms: C_21  and  C_22
REMARK                            x       y       z     vdW  Elec       q    Type
REMARK                         _______ _______ _______ _____ _____    ______ ____
ROOT
ATOM      1  O   UNL     1      44.386  54.043  55.526  0.00  0.00    +0.000 OA
ATOM      2  N   UNL     1      45.308  53.568  53.476  0.00  0.00    +0.000 N 
ATOM      3  N   UNL     1      47.326  55.540  52.611  0.00  0.00    +0.000 N 
ATOM      4  N   UNL     1      48.033  55.535  54.683  0.00  0.00    +0.000 NA
ATOM      5  N   UNL     1      48.457  56.691  54.093  0.00  0.00    +0.000 NA
ATOM      6  C   UNL     1      45.206  53.183  52.070  0.00  0.00    +0.000 C 
ATOM      7  C   UNL     1      46.378  53.652  51.201  0.00  0.00    +0.000 C 
ATOM      8  C   UNL     1      46.713  55.136  51.359  0.00  0.00    +0.000 C 
ATOM      9  C   UNL     1      46.643  53.559  54.073  0.00  0.00    +0.000 C 
ATOM     10  C   UNL     1      47.324  54.857  53.805  0.00  0.00    +0.000 A 
ATOM     11  C   UNL     1      44.227  53.804  54.327  0.00  0.00    +0.000 C 
ATOM     12  C   UNL     1      48.012  56.717  52.850  0.00  0.00    +0.000 A 
ENDROOT
BRANCH  12  16
ATOM     13  F   UNL     1      49.199  58.690  52.257  0.00  0.00    +0.000 F 
ATOM     14  F   UNL     1      47.094  58.583  51.730  0.00  0.00    +0.000 F 
ATOM     15  F   UNL     1      48.561  57.380  50.649  0.00  0.00    +0.000 F 
ATOM     16  C   UNL     1      48.213  57.829  51.884  0.00  0.00    +0.000 C 
ENDBRANCH  12  16
BRANCH  11  17
ATOM     17  C   UNL     1      42.828  53.752  53.727  0.00  0.00    +0.000 C 
BRANCH  17  18
ATOM     18  C   UNL     1      41.709  54.093  54.741  0.00  0.00    +0.000 C 
BRANCH  18  19
ATOM     19  N   UNL     1      40.636  53.092  54.548  0.00  0.00    +0.000 NA
ATOM     20  H   UNL     1      40.616  52.454  55.347  0.00  0.00    +0.000 HD
ATOM     21  H   UNL     1      40.883  52.499  53.755  0.00  0.00    +0.000 HD
ENDBRANCH  18  19
BRANCH  18  22
ATOM     22  C   UNL     1      41.185  55.544  54.566  0.00  0.00    +0.000 C 
BRANCH  22  25
ATOM     23  F   UNL     1      43.467  57.191  54.908  0.00  0.00    +0.000 F 
ATOM     24  F   UNL     1      39.744  57.396  58.872  0.00  0.00    +0.000 F 
ATOM     25  C   UNL     1      41.372  56.464  55.749  0.00  0.00    +0.000 A 
ATOM     26  C   UNL     1      42.541  57.231  55.877  0.00  0.00    +0.000 A 
ATOM     27  C   UNL     1      40.420  56.542  56.774  0.00  0.00    +0.000 A 
ATOM     28  C   UNL     1      40.656  57.345  57.889  0.00  0.00    +0.000 A 
ATOM     29  C   UNL     1      42.776  58.032  56.993  0.00  0.00    +0.000 A 
ATOM     30  C   UNL     1      41.825  58.086  58.011  0.00  0.00    +0.000 A 
ENDBRANCH  22  25
ENDBRANCH  18  22
ENDBRANCH  17  18
ENDBRANCH  11  17
TORSDOF 6
ENDMDL
