MODEL 1
REMARK VINA RESULT:      -8.8      0.000      0.000
REMARK  Name = 24777308
REMARK  7 active torsions:
REMARK  status: ('A' for Active; 'I' for Inactive)
REMARK    1  A    between atoms: N_12  and  C_21
REMARK    2  A    between atoms: C_13  and  C_17
REMARK    3  A    between atoms: C_18  and  C_19
REMARK    4  A    between atoms: C_19  and  C_21
REMARK    5  A    between atoms: C_20  and  C_23
REMARK    6  A    between atoms: C_21  and  C_22
REMARK    7  A    between atoms: C_22  and  C_24
REMARK                            x       y       z     vdW  Elec       q    Type
REMARK                         _______ _______ _______ _____ _____    ______ ____
ROOT
ATOM      1  O   UNL     1      45.465  72.600  50.317  0.00  0.00    +0.000 OA
ATOM      2  N   UNL     1      47.390  71.509  49.767  0.00  0.00    +0.000 N 
ATOM      3  N   UNL     1      49.452  69.966  50.784  0.00  0.00    +0.000 N 
ATOM      4  N   UNL     1      50.822  70.381  49.122  0.00  0.00    +0.000 NA
ATOM      5  N   UNL     1      51.530  69.794  50.134  0.00  0.00    +0.000 NA
ATOM      6  C   UNL     1      48.192  69.943  51.522  0.00  0.00    +0.000 C 
ATOM      7  C   UNL     1      47.026  70.370  50.606  0.00  0.00    +0.000 C 
ATOM      8  C   UNL     1      48.495  71.268  48.840  0.00  0.00    +0.000 C 
ATOM      9  C   UNL     1      49.589  70.546  49.542  0.00  0.00    +0.000 A 
ATOM     10  C   UNL     1      47.848  68.584  52.144  0.00  0.00    +0.000 C 
ATOM     11  C   UNL     1      46.524  72.588  49.691  0.00  0.00    +0.000 C 
ATOM     12  C   UNL     1      50.724  69.610  51.168  0.00  0.00    +0.000 A 
ENDROOT
BRANCH  12  16
ATOM     13  F   UNL     1      50.511  69.788  53.523  0.00  0.00    +0.000 F 
ATOM     14  F   UNL     1      52.466  69.303  52.732  0.00  0.00    +0.000 F 
ATOM     15  F   UNL     1      50.871  67.811  52.687  0.00  0.00    +0.000 F 
ATOM     16  C   UNL     1      51.137  69.132  52.511  0.00  0.00    +0.000 C 
ENDBRANCH  12  16
BRANCH  11  17
ATOM     17  C   UNL     1      46.952  73.766  48.830  0.00  0.00    +0.000 C 
BRANCH  17  18
ATOM     18  C   UNL     1      46.643  75.131  49.472  0.00  0.00    +0.000 C 
BRANCH  18  19
ATOM     19  N   UNL     1      45.177  75.223  49.642  0.00  0.00    +0.000 NA
ATOM     20  H   UNL     1      44.825  76.024  49.116  0.00  0.00    +0.000 HD
ATOM     21  H   UNL     1      44.958  75.427  50.617  0.00  0.00    +0.000 HD
ENDBRANCH  18  19
BRANCH  18  22
ATOM     22  C   UNL     1      47.166  76.305  48.607  0.00  0.00    +0.000 C 
BRANCH  22  26
ATOM     23  F   UNL     1      48.127  78.789  47.609  0.00  0.00    +0.000 F 
ATOM     24  F   UNL     1      50.584  76.833  52.060  0.00  0.00    +0.000 F 
ATOM     25  F   UNL     1      51.335  79.248  51.019  0.00  0.00    +0.000 F 
ATOM     26  C   UNL     1      48.294  77.081  49.249  0.00  0.00    +0.000 A 
ATOM     27  C   UNL     1      48.713  78.307  48.714  0.00  0.00    +0.000 A 
ATOM     28  C   UNL     1      48.944  76.584  50.387  0.00  0.00    +0.000 A 
ATOM     29  C   UNL     1      49.967  77.315  50.975  0.00  0.00    +0.000 A 
ATOM     30  C   UNL     1      49.735  79.043  49.301  0.00  0.00    +0.000 A 
ATOM     31  C   UNL     1      50.356  78.542  50.440  0.00  0.00    +0.000 A 
ENDBRANCH  22  26
ENDBRANCH  18  22
ENDBRANCH  17  18
ENDBRANCH  11  17
TORSDOF 6
ENDMDL
MODEL 2
REMARK VINA RESULT:      -8.6      1.497      2.045
REMARK  Name = 24777308
REMARK  7 active torsions:
REMARK  status: ('A' for Active; 'I' for Inactive)
REMARK    1  A    between atoms: N_12  and  C_21
REMARK    2  A    between atoms: C_13  and  C_17
REMARK    3  A    between atoms: C_18  and  C_19
REMARK    4  A    between atoms: C_19  and  C_21
REMARK    5  A    between atoms: C_20  and  C_23
REMARK    6  A    between atoms: C_21  and  C_22
REMARK    7  A    between atoms: C_22  and  C_24
REMARK                            x       y       z     vdW  Elec       q    Type
REMARK                         _______ _______ _______ _____ _____    ______ ____
ROOT
ATOM      1  O   UNL     1      45.515  71.952  50.090  0.00  0.00    +0.000 OA
ATOM      2  N   UNL     1      47.586  71.086  49.687  0.00  0.00    +0.000 N 
ATOM      3  N   UNL     1      49.706  69.735  50.848  0.00  0.00    +0.000 N 
ATOM      4  N   UNL     1      51.161  70.344  49.324  0.00  0.00    +0.000 NA
ATOM      5  N   UNL     1      51.838  69.801  50.382  0.00  0.00    +0.000 NA
ATOM      6  C   UNL     1      48.396  69.557  51.470  0.00  0.00    +0.000 C 
ATOM      7  C   UNL     1      47.275  69.890  50.464  0.00  0.00    +0.000 C 
ATOM      8  C   UNL     1      48.786  70.992  48.857  0.00  0.00    +0.000 C 
ATOM      9  C   UNL     1      49.886  70.366  49.636  0.00  0.00    +0.000 A 
ATOM     10  C   UNL     1      48.147  68.150  52.028  0.00  0.00    +0.000 C 
ATOM     11  C   UNL     1      46.619  72.072  49.559  0.00  0.00    +0.000 C 
ATOM     12  C   UNL     1      50.970  69.501  51.335  0.00  0.00    +0.000 A 
ENDROOT
BRANCH  12  16
ATOM     13  F   UNL     1      51.105  67.693  52.863  0.00  0.00    +0.000 F 
ATOM     14  F   UNL     1      50.574  69.635  53.660  0.00  0.00    +0.000 F 
ATOM     15  F   UNL     1      52.621  69.248  53.001  0.00  0.00    +0.000 F 
ATOM     16  C   UNL     1      51.315  69.026  52.698  0.00  0.00    +0.000 C 
ENDBRANCH  12  16
BRANCH  11  17
ATOM     17  C   UNL     1      46.991  73.315  48.767  0.00  0.00    +0.000 C 
BRANCH  17  18
ATOM     18  C   UNL     1      46.516  74.621  49.429  0.00  0.00    +0.000 C 
BRANCH  18  19
ATOM     19  N   UNL     1      45.044  74.678  49.297  0.00  0.00    +0.000 NA
ATOM     20  H   UNL     1      44.709  75.580  49.639  0.00  0.00    +0.000 HD
ATOM     21  H   UNL     1      44.618  73.986  49.913  0.00  0.00    +0.000 HD
ENDBRANCH  18  19
BRANCH  18  22
ATOM     22  C   UNL     1      47.170  75.866  48.780  0.00  0.00    +0.000 C 
BRANCH  22  26
ATOM     23  F   UNL     1      49.600  76.174  50.225  0.00  0.00    +0.000 F 
ATOM     24  F   UNL     1      45.743  79.918  51.110  0.00  0.00    +0.000 F 
ATOM     25  F   UNL     1      48.168  80.113  52.361  0.00  0.00    +0.000 F 
ATOM     26  C   UNL     1      47.425  76.998  49.750  0.00  0.00    +0.000 A 
ATOM     27  C   UNL     1      48.650  77.099  50.423  0.00  0.00    +0.000 A 
ATOM     28  C   UNL     1      46.438  77.961  49.997  0.00  0.00    +0.000 A 
ATOM     29  C   UNL     1      46.692  79.003  50.879  0.00  0.00    +0.000 A 
ATOM     30  C   UNL     1      48.909  78.143  51.303  0.00  0.00    +0.000 A 
ATOM     31  C   UNL     1      47.924  79.099  51.523  0.00  0.00    +0.000 A 
ENDBRANCH  22  26
ENDBRANCH  18  22
ENDBRANCH  17  18
ENDBRANCH  11  17
TORSDOF 6
ENDMDL
MODEL 3
REMARK VINA RESULT:      -8.1     10.589     12.810
REMARK  Name = 24777308
REMARK  7 active torsions:
REMARK  status: ('A' for Active; 'I' for Inactive)
REMARK    1  A    between atoms: N_12  and  C_21
REMARK    2  A    between atoms: C_13  and  C_17
REMARK    3  A    between atoms: C_18  and  C_19
REMARK    4  A    between atoms: C_19  and  C_21
REMARK    5  A    between atoms: C_20  and  C_23
REMARK    6  A    between atoms: C_21  and  C_22
REMARK    7  A    between atoms: C_22  and  C_24
REMARK                            x       y       z     vdW  Elec       q    Type
REMARK                         _______ _______ _______ _____ _____    ______ ____
ROOT
ATOM      1  O   UNL     1      54.875  70.148  40.106  0.00  0.00    +0.000 OA
ATOM      2  N   UNL     1      52.722  70.276  40.849  0.00  0.00    +0.000 N 
ATOM      3  N   UNL     1      50.231  71.354  40.302  0.00  0.00    +0.000 N 
ATOM      4  N   UNL     1      49.486  71.129  42.352  0.00  0.00    +0.000 NA
ATOM      5  N   UNL     1      48.622  71.934  41.660  0.00  0.00    +0.000 NA
ATOM      6  C   UNL     1      51.134  71.182  39.166  0.00  0.00    +0.000 C 
ATOM      7  C   UNL     1      52.208  70.123  39.491  0.00  0.00    +0.000 C 
ATOM      8  C   UNL     1      51.731  70.108  41.911  0.00  0.00    +0.000 C 
ATOM      9  C   UNL     1      50.487  70.839  41.554  0.00  0.00    +0.000 A 
ATOM     10  C   UNL     1      50.437  70.782  37.860  0.00  0.00    +0.000 C 
ATOM     11  C   UNL     1      54.095  70.274  41.049  0.00  0.00    +0.000 C 
ATOM     12  C   UNL     1      49.108  72.134  40.445  0.00  0.00    +0.000 A 
ENDROOT
BRANCH  12  16
ATOM     13  F   UNL     1      47.826  74.075  39.985  0.00  0.00    +0.000 F 
ATOM     14  F   UNL     1      47.697  72.437  38.575  0.00  0.00    +0.000 F 
ATOM     15  F   UNL     1      49.514  73.646  38.681  0.00  0.00    +0.000 F 
ATOM     16  C   UNL     1      48.545  73.062  39.433  0.00  0.00    +0.000 C 
ENDBRANCH  12  16
BRANCH  11  17
ATOM     17  C   UNL     1      54.592  70.465  42.473  0.00  0.00    +0.000 C 
BRANCH  17  18
ATOM     18  C   UNL     1      55.175  71.867  42.729  0.00  0.00    +0.000 C 
BRANCH  18  19
ATOM     19  N   UNL     1      55.405  72.501  41.414  0.00  0.00    +0.000 NA
ATOM     20  H   UNL     1      54.601  73.084  41.174  0.00  0.00    +0.000 HD
ATOM     21  H   UNL     1      55.439  71.785  40.689  0.00  0.00    +0.000 HD
ENDBRANCH  18  19
BRANCH  18  22
ATOM     22  C   UNL     1      56.492  71.803  43.542  0.00  0.00    +0.000 C 
BRANCH  22  26
ATOM     23  F   UNL     1      58.535  73.774  43.375  0.00  0.00    +0.000 F 
ATOM     24  F   UNL     1      59.240  69.271  40.391  0.00  0.00    +0.000 F 
ATOM     25  F   UNL     1      61.149  71.230  40.405  0.00  0.00    +0.000 F 
ATOM     26  C   UNL     1      57.730  71.650  42.686  0.00  0.00    +0.000 A 
ATOM     27  C   UNL     1      58.707  72.655  42.657  0.00  0.00    +0.000 A 
ATOM     28  C   UNL     1      57.919  70.503  41.904  0.00  0.00    +0.000 A 
ATOM     29  C   UNL     1      59.068  70.369  41.137  0.00  0.00    +0.000 A 
ATOM     30  C   UNL     1      59.859  72.523  41.893  0.00  0.00    +0.000 A 
ATOM     31  C   UNL     1      60.037  71.371  41.137  0.00  0.00    +0.000 A 
ENDBRANCH  22  26
ENDBRANCH  18  22
ENDBRANCH  17  18
ENDBRANCH  11  17
TORSDOF 6
ENDMDL
MODEL 4
REMARK VINA RESULT:      -7.8     25.033     27.596
REMARK  Name = 24777308
REMARK  7 active torsions:
REMARK  status: ('A' for Active; 'I' for Inactive)
REMARK    1  A    between atoms: N_12  and  C_21
REMARK    2  A    between atoms: C_13  and  C_17
REMARK    3  A    between atoms: C_18  and  C_19
REMARK    4  A    between atoms: C_19  and  C_21
REMARK    5  A    between atoms: C_20  and  C_23
REMARK    6  A    between atoms: C_21  and  C_22
REMARK    7  A    between atoms: C_22  and  C_24
REMARK                            x       y       z     vdW  Elec       q    Type
REMARK                         _______ _______ _______ _____ _____    ______ ____
ROOT
ATOM      1  O   UNL     1      48.450  52.415  33.809  0.00  0.00    +0.000 OA
ATOM      2  N   UNL     1      49.879  51.337  35.222  0.00  0.00    +0.000 N 
ATOM      3  N   UNL     1      52.071  49.648  35.321  0.00  0.00    +0.000 N 
ATOM      4  N   UNL     1      51.717  49.018  37.392  0.00  0.00    +0.000 NA
ATOM      5  N   UNL     1      52.651  48.187  36.838  0.00  0.00    +0.000 NA
ATOM      6  C   UNL     1      51.905  50.434  34.102  0.00  0.00    +0.000 C 
ATOM      7  C   UNL     1      51.022  51.669  34.376  0.00  0.00    +0.000 C 
ATOM      8  C   UNL     1      50.218  50.844  36.556  0.00  0.00    +0.000 C 
ATOM      9  C   UNL     1      51.320  49.851  36.459  0.00  0.00    +0.000 A 
ATOM     10  C   UNL     1      53.220  50.908  33.471  0.00  0.00    +0.000 C 
ATOM     11  C   UNL     1      48.617  51.766  34.842  0.00  0.00    +0.000 C 
ATOM     12  C   UNL     1      52.813  48.516  35.565  0.00  0.00    +0.000 A 
ENDROOT
BRANCH  12  16
ATOM     13  F   UNL     1      54.866  48.303  34.398  0.00  0.00    +0.000 F 
ATOM     14  F   UNL     1      53.058  47.748  33.345  0.00  0.00    +0.000 F 
ATOM     15  F   UNL     1      53.822  46.475  34.948  0.00  0.00    +0.000 F 
ATOM     16  C   UNL     1      53.630  47.768  34.577  0.00  0.00    +0.000 C 
ENDBRANCH  12  16
BRANCH  11  17
ATOM     17  C   UNL     1      47.449  51.375  35.733  0.00  0.00    +0.000 C 
BRANCH  17  18
ATOM     18  C   UNL     1      46.395  52.489  35.876  0.00  0.00    +0.000 C 
BRANCH  18  19
ATOM     19  N   UNL     1      47.112  53.746  36.176  0.00  0.00    +0.000 NA
ATOM     20  H   UNL     1      46.507  54.540  35.961  0.00  0.00    +0.000 HD
ATOM     21  H   UNL     1      47.911  53.843  35.550  0.00  0.00    +0.000 HD
ENDBRANCH  18  19
BRANCH  18  22
ATOM     22  C   UNL     1      45.367  52.168  36.989  0.00  0.00    +0.000 C 
BRANCH  22  26
ATOM     23  F   UNL     1      43.462  54.179  37.633  0.00  0.00    +0.000 F 
ATOM     24  F   UNL     1      41.713  50.075  34.508  0.00  0.00    +0.000 F 
ATOM     25  F   UNL     1      40.029  52.131  35.154  0.00  0.00    +0.000 F 
ATOM     26  C   UNL     1      43.933  52.144  36.507  0.00  0.00    +0.000 A 
ATOM     27  C   UNL     1      43.046  53.173  36.851  0.00  0.00    +0.000 A 
ATOM     28  C   UNL     1      43.466  51.088  35.712  0.00  0.00    +0.000 A 
ATOM     29  C   UNL     1      42.152  51.087  35.264  0.00  0.00    +0.000 A 
ATOM     30  C   UNL     1      41.732  53.178  36.401  0.00  0.00    +0.000 A 
ATOM     31  C   UNL     1      41.291  52.131  35.600  0.00  0.00    +0.000 A 
ENDBRANCH  22  26
ENDBRANCH  18  22
ENDBRANCH  17  18
ENDBRANCH  11  17
TORSDOF 6
ENDMDL
MODEL 5
REMARK VINA RESULT:      -7.3     22.696     26.019
REMARK  Name = 24777308
REMARK  7 active torsions:
REMARK  status: ('A' for Active; 'I' for Inactive)
REMARK    1  A    between atoms: N_12  and  C_21
REMARK    2  A    between atoms: C_13  and  C_17
REMARK    3  A    between atoms: C_18  and  C_19
REMARK    4  A    between atoms: C_19  and  C_21
REMARK    5  A    between atoms: C_20  and  C_23
REMARK    6  A    between atoms: C_21  and  C_22
REMARK    7  A    between atoms: C_22  and  C_24
REMARK                            x       y       z     vdW  Elec       q    Type
REMARK                         _______ _______ _______ _____ _____    ______ ____
ROOT
ATOM      1  O   UNL     1      51.360  51.370  39.452  0.00  0.00    +0.000 OA
ATOM      2  N   UNL     1      51.121  50.617  41.591  0.00  0.00    +0.000 N 
ATOM      3  N   UNL     1      52.321  50.560  44.086  0.00  0.00    +0.000 N 
ATOM      4  N   UNL     1      51.167  48.837  44.799  0.00  0.00    +0.000 NA
ATOM      5  N   UNL     1      52.198  49.061  45.670  0.00  0.00    +0.000 NA
ATOM      6  C   UNL     1      52.699  51.660  43.202  0.00  0.00    +0.000 C 
ATOM      7  C   UNL     1      51.614  51.882  42.128  0.00  0.00    +0.000 C 
ATOM      8  C   UNL     1      50.475  49.739  42.566  0.00  0.00    +0.000 C 
ATOM      9  C   UNL     1      51.284  49.694  43.813  0.00  0.00    +0.000 A 
ATOM     10  C   UNL     1      52.950  52.991  43.922  0.00  0.00    +0.000 C 
ATOM     11  C   UNL     1      51.031  50.464  40.216  0.00  0.00    +0.000 C 
ATOM     12  C   UNL     1      52.941  50.053  45.203  0.00  0.00    +0.000 A 
ENDROOT
BRANCH  12  16
ATOM     13  F   UNL     1      55.164  50.789  44.830  0.00  0.00    +0.000 F 
ATOM     14  F   UNL     1      54.798  49.569  46.580  0.00  0.00    +0.000 F 
ATOM     15  F   UNL     1      54.090  51.635  46.523  0.00  0.00    +0.000 F 
ATOM     16  C   UNL     1      54.232  50.508  45.778  0.00  0.00    +0.000 C 
ENDBRANCH  12  16
BRANCH  11  17
ATOM     17  C   UNL     1      50.540  49.122  39.695  0.00  0.00    +0.000 C 
BRANCH  17  18
ATOM     18  C   UNL     1      49.329  49.243  38.752  0.00  0.00    +0.000 C 
BRANCH  18  19
ATOM     19  N   UNL     1      48.136  48.786  39.497  0.00  0.00    +0.000 NA
ATOM     20  H   UNL     1      47.737  49.572  40.012  0.00  0.00    +0.000 HD
ATOM     21  H   UNL     1      48.416  48.114  40.211  0.00  0.00    +0.000 HD
ENDBRANCH  18  19
BRANCH  18  22
ATOM     22  C   UNL     1      49.519  48.408  37.461  0.00  0.00    +0.000 C 
BRANCH  22  26
ATOM     23  F   UNL     1      52.264  48.245  36.732  0.00  0.00    +0.000 F 
ATOM     24  F   UNL     1      49.147  51.588  33.768  0.00  0.00    +0.000 F 
ATOM     25  F   UNL     1      51.790  51.256  33.149  0.00  0.00    +0.000 F 
ATOM     26  C   UNL     1      50.125  49.187  36.314  0.00  0.00    +0.000 A 
ATOM     27  C   UNL     1      51.484  49.052  35.999  0.00  0.00    +0.000 A 
ATOM     28  C   UNL     1      49.338  50.059  35.551  0.00  0.00    +0.000 A 
ATOM     29  C   UNL     1      49.904  50.755  34.491  0.00  0.00    +0.000 A 
ATOM     30  C   UNL     1      52.053  49.744  34.937  0.00  0.00    +0.000 A 
ATOM     31  C   UNL     1      51.253  50.592  34.181  0.00  0.00    +0.000 A 
ENDBRANCH  22  26
ENDBRANCH  18  22
ENDBRANCH  17  18
ENDBRANCH  11  17
TORSDOF 6
ENDMDL
MODEL 6
REMARK VINA RESULT:      -6.7     23.860     25.778
REMARK  Name = 24777308
REMARK  7 active torsions:
REMARK  status: ('A' for Active; 'I' for Inactive)
REMARK    1  A    between atoms: N_12  and  C_21
REMARK    2  A    between atoms: C_13  and  C_17
REMARK    3  A    between atoms: C_18  and  C_19
REMARK    4  A    between atoms: C_19  and  C_21
REMARK    5  A    between atoms: C_20  and  C_23
REMARK    6  A    between atoms: C_21  and  C_22
REMARK    7  A    between atoms: C_22  and  C_24
REMARK                            x       y       z     vdW  Elec       q    Type
REMARK                         _______ _______ _______ _____ _____    ______ ____
ROOT
ATOM      1  O   UNL     1      37.727  52.297  46.931  0.00  0.00    +0.000 OA
ATOM      2  N   UNL     1      37.034  52.346  49.103  0.00  0.00    +0.000 N 
ATOM      3  N   UNL     1      36.317  50.757  51.255  0.00  0.00    +0.000 N 
ATOM      4  N   UNL     1      35.234  52.352  52.300  0.00  0.00    +0.000 NA
ATOM      5  N   UNL     1      34.936  51.159  52.899  0.00  0.00    +0.000 NA
ATOM      6  C   UNL     1      37.190  50.149  50.255  0.00  0.00    +0.000 C 
ATOM      7  C   UNL     1      37.924  51.241  49.449  0.00  0.00    +0.000 C 
ATOM      8  C   UNL     1      36.472  53.069  50.243  0.00  0.00    +0.000 C 
ATOM      9  C   UNL     1      36.008  52.100  51.271  0.00  0.00    +0.000 A 
ATOM     10  C   UNL     1      38.235  49.185  50.830  0.00  0.00    +0.000 C 
ATOM     11  C   UNL     1      37.014  52.805  47.795  0.00  0.00    +0.000 C 
ATOM     12  C   UNL     1      35.528  50.185  52.225  0.00  0.00    +0.000 A 
ENDROOT
BRANCH  12  16
ATOM     13  F   UNL     1      35.264  48.012  51.314  0.00  0.00    +0.000 F 
ATOM     14  F   UNL     1      34.193  48.465  53.140  0.00  0.00    +0.000 F 
ATOM     15  F   UNL     1      36.361  48.198  53.185  0.00  0.00    +0.000 F 
ATOM     16  C   UNL     1      35.341  48.732  52.464  0.00  0.00    +0.000 C 
ENDBRANCH  12  16
BRANCH  11  17
ATOM     17  C   UNL     1      36.052  53.937  47.469  0.00  0.00    +0.000 C 
BRANCH  17  18
ATOM     18  C   UNL     1      34.690  53.445  46.946  0.00  0.00    +0.000 C 
BRANCH  18  19
ATOM     19  N   UNL     1      34.646  51.979  47.128  0.00  0.00    +0.000 NA
ATOM     20  H   UNL     1      33.889  51.740  47.770  0.00  0.00    +0.000 HD
ATOM     21  H   UNL     1      35.498  51.665  47.592  0.00  0.00    +0.000 HD
ENDBRANCH  18  19
BRANCH  18  22
ATOM     22  C   UNL     1      34.477  53.818  45.458  0.00  0.00    +0.000 C 
BRANCH  22  26
ATOM     23  F   UNL     1      36.651  55.207  44.261  0.00  0.00    +0.000 F 
ATOM     24  F   UNL     1      36.133  49.934  42.997  0.00  0.00    +0.000 F 
ATOM     25  F   UNL     1      38.216  51.395  41.993  0.00  0.00    +0.000 F 
ATOM     26  C   UNL     1      35.466  53.166  44.517  0.00  0.00    +0.000 A 
ATOM     27  C   UNL     1      36.524  53.905  43.970  0.00  0.00    +0.000 A 
ATOM     28  C   UNL     1      35.338  51.814  44.174  0.00  0.00    +0.000 A 
ATOM     29  C   UNL     1      36.263  51.225  43.322  0.00  0.00    +0.000 A 
ATOM     30  C   UNL     1      37.453  53.318  43.120  0.00  0.00    +0.000 A 
ATOM     31  C   UNL     1      37.320  51.971  42.804  0.00  0.00    +0.000 A 
ENDBRANCH  22  26
ENDBRANCH  18  22
ENDBRANCH  17  18
ENDBRANCH  11  17
TORSDOF 6
ENDMDL
MODEL 7
REMARK VINA RESULT:      -6.7     22.593     25.003
REMARK  Name = 24777308
REMARK  7 active torsions:
REMARK  status: ('A' for Active; 'I' for Inactive)
REMARK    1  A    between atoms: N_12  and  C_21
REMARK    2  A    between atoms: C_13  and  C_17
REMARK    3  A    between atoms: C_18  and  C_19
REMARK    4  A    between atoms: C_19  and  C_21
REMARK    5  A    between atoms: C_20  and  C_23
REMARK    6  A    between atoms: C_21  and  C_22
REMARK    7  A    between atoms: C_22  and  C_24
REMARK                            x       y       z     vdW  Elec       q    Type
REMARK                         _______ _______ _______ _____ _____    ______ ____
ROOT
ATOM      1  O   UNL     1      37.808  51.420  46.871  0.00  0.00    +0.000 OA
ATOM      2  N   UNL     1      37.130  51.828  49.009  0.00  0.00    +0.000 N 
ATOM      3  N   UNL     1      36.247  50.622  51.340  0.00  0.00    +0.000 N 
ATOM      4  N   UNL     1      35.348  52.449  52.156  0.00  0.00    +0.000 NA
ATOM      5  N   UNL     1      34.922  51.383  52.901  0.00  0.00    +0.000 NA
ATOM      6  C   UNL     1      37.046  49.796  50.438  0.00  0.00    +0.000 C 
ATOM      7  C   UNL     1      37.894  50.687  49.506  0.00  0.00    +0.000 C 
ATOM      8  C   UNL     1      36.654  52.751  50.038  0.00  0.00    +0.000 C 
ATOM      9  C   UNL     1      36.088  51.981  51.178  0.00  0.00    +0.000 A 
ATOM     10  C   UNL     1      37.979  48.807  51.146  0.00  0.00    +0.000 C 
ATOM     11  C   UNL     1      37.157  52.112  47.652  0.00  0.00    +0.000 C 
ATOM     12  C   UNL     1      35.402  50.271  52.366  0.00  0.00    +0.000 A 
ENDROOT
BRANCH  12  16
ATOM     13  F   UNL     1      35.782  48.467  53.857  0.00  0.00    +0.000 F 
ATOM     14  F   UNL     1      35.282  47.979  51.808  0.00  0.00    +0.000 F 
ATOM     15  F   UNL     1      33.750  48.778  53.146  0.00  0.00    +0.000 F 
ATOM     16  C   UNL     1      35.056  48.890  52.790  0.00  0.00    +0.000 C 
ENDBRANCH  12  16
BRANCH  11  17
ATOM     17  C   UNL     1      36.326  53.290  47.170  0.00  0.00    +0.000 C 
BRANCH  17  18
ATOM     18  C   UNL     1      34.943  52.878  46.633  0.00  0.00    +0.000 C 
BRANCH  18  19
ATOM     19  N   UNL     1      35.162  51.961  45.495  0.00  0.00    +0.000 NA
ATOM     20  H   UNL     1      34.507  52.189  44.745  0.00  0.00    +0.000 HD
ATOM     21  H   UNL     1      34.926  51.008  45.773  0.00  0.00    +0.000 HD
ENDBRANCH  18  19
BRANCH  18  22
ATOM     22  C   UNL     1      34.108  54.106  46.191  0.00  0.00    +0.000 C 
BRANCH  22  26
ATOM     23  F   UNL     1      35.259  56.627  46.832  0.00  0.00    +0.000 F 
ATOM     24  F   UNL     1      35.645  55.018  41.642  0.00  0.00    +0.000 F 
ATOM     25  F   UNL     1      36.768  57.380  42.442  0.00  0.00    +0.000 F 
ATOM     26  C   UNL     1      34.805  54.986  45.178  0.00  0.00    +0.000 A 
ATOM     27  C   UNL     1      35.363  56.214  45.562  0.00  0.00    +0.000 A 
ATOM     28  C   UNL     1      34.902  54.590  43.837  0.00  0.00    +0.000 A 
ATOM     29  C   UNL     1      35.559  55.401  42.921  0.00  0.00    +0.000 A 
ATOM     30  C   UNL     1      36.024  57.025  44.649  0.00  0.00    +0.000 A 
ATOM     31  C   UNL     1      36.124  56.609  43.326  0.00  0.00    +0.000 A 
ENDBRANCH  22  26
ENDBRANCH  18  22
ENDBRANCH  17  18
ENDBRANCH  11  17
TORSDOF 6
ENDMDL
MODEL 8
REMARK VINA RESULT:      -6.6     21.954     25.015
REMARK  Name = 24777308
REMARK  7 active torsions:
REMARK  status: ('A' for Active; 'I' for Inactive)
REMARK    1  A    between atoms: N_12  and  C_21
REMARK    2  A    between atoms: C_13  and  C_17
REMARK    3  A    between atoms: C_18  and  C_19
REMARK    4  A    between atoms: C_19  and  C_21
REMARK    5  A    between atoms: C_20  and  C_23
REMARK    6  A    between atoms: C_21  and  C_22
REMARK    7  A    between atoms: C_22  and  C_24
REMARK                            x       y       z     vdW  Elec       q    Type
REMARK                         _______ _______ _______ _____ _____    ______ ____
ROOT
ATOM      1  O   UNL     1      37.254  50.771  46.682  0.00  0.00    +0.000 OA
ATOM      2  N   UNL     1      36.732  51.267  48.846  0.00  0.00    +0.000 N 
ATOM      3  N   UNL     1      36.103  50.156  51.303  0.00  0.00    +0.000 N 
ATOM      4  N   UNL     1      35.183  51.984  52.094  0.00  0.00    +0.000 NA
ATOM      5  N   UNL     1      34.873  50.944  52.927  0.00  0.00    +0.000 NA
ATOM      6  C   UNL     1      36.865  49.318  50.381  0.00  0.00    +0.000 C 
ATOM      7  C   UNL     1      37.589  50.191  49.336  0.00  0.00    +0.000 C 
ATOM      8  C   UNL     1      36.296  52.224  49.861  0.00  0.00    +0.000 C 
ATOM      9  C   UNL     1      35.864  51.496  51.083  0.00  0.00    +0.000 A 
ATOM     10  C   UNL     1      37.901  48.413  51.059  0.00  0.00    +0.000 C 
ATOM     11  C   UNL     1      36.635  51.476  47.478  0.00  0.00    +0.000 C 
ATOM     12  C   UNL     1      35.362  49.826  52.413  0.00  0.00    +0.000 A 
ENDROOT
BRANCH  12  16
ATOM     13  F   UNL     1      36.148  47.991  53.693  0.00  0.00    +0.000 F 
ATOM     14  F   UNL     1      34.957  47.547  51.941  0.00  0.00    +0.000 F 
ATOM     15  F   UNL     1      34.011  48.398  53.717  0.00  0.00    +0.000 F 
ATOM     16  C   UNL     1      35.121  48.457  52.936  0.00  0.00    +0.000 C 
ENDBRANCH  12  16
BRANCH  11  17
ATOM     17  C   UNL     1      35.710  52.586  47.006  0.00  0.00    +0.000 C 
BRANCH  17  18
ATOM     18  C   UNL     1      35.509  52.601  45.480  0.00  0.00    +0.000 C 
BRANCH  18  19
ATOM     19  N   UNL     1      36.827  52.849  44.859  0.00  0.00    +0.000 NA
ATOM     20  H   UNL     1      36.718  53.506  44.084  0.00  0.00    +0.000 HD
ATOM     21  H   UNL     1      37.172  51.989  44.432  0.00  0.00    +0.000 HD
ENDBRANCH  18  19
BRANCH  18  22
ATOM     22  C   UNL     1      34.489  53.682  45.044  0.00  0.00    +0.000 C 
BRANCH  22  26
ATOM     23  F   UNL     1      33.476  54.797  47.457  0.00  0.00    +0.000 F 
ATOM     24  F   UNL     1      36.795  57.958  44.513  0.00  0.00    +0.000 F 
ATOM     25  F   UNL     1      35.798  58.850  46.899  0.00  0.00    +0.000 F 
ATOM     26  C   UNL     1      34.831  55.074  45.527  0.00  0.00    +0.000 A 
ATOM     27  C   UNL     1      34.307  55.560  46.733  0.00  0.00    +0.000 A 
ATOM     28  C   UNL     1      35.674  55.903  44.775  0.00  0.00    +0.000 A 
ATOM     29  C   UNL     1      35.992  57.172  45.239  0.00  0.00    +0.000 A 
ATOM     30  C   UNL     1      34.626  56.828  47.202  0.00  0.00    +0.000 A 
ATOM     31  C   UNL     1      35.477  57.630  46.451  0.00  0.00    +0.000 A 
ENDBRANCH  22  26
ENDBRANCH  18  22
ENDBRANCH  17  18
ENDBRANCH  11  17
TORSDOF 6
ENDMDL
MODEL 9
REMARK VINA RESULT:      -6.2     20.747     24.398
REMARK  Name = 24777308
REMARK  7 active torsions:
REMARK  status: ('A' for Active; 'I' for Inactive)
REMARK    1  A    between atoms: N_12  and  C_21
REMARK    2  A    between atoms: C_13  and  C_17
REMARK    3  A    between atoms: C_18  and  C_19
REMARK    4  A    between atoms: C_19  and  C_21
REMARK    5  A    between atoms: C_20  and  C_23
REMARK    6  A    between atoms: C_21  and  C_22
REMARK    7  A    between atoms: C_22  and  C_24
REMARK                            x       y       z     vdW  Elec       q    Type
REMARK                         _______ _______ _______ _____ _____    ______ ____
ROOT
ATOM      1  O   UNL     1      35.867  54.421  48.330  0.00  0.00    +0.000 OA
ATOM      2  N   UNL     1      36.343  52.264  48.897  0.00  0.00    +0.000 N 
ATOM      3  N   UNL     1      35.818  49.621  48.263  0.00  0.00    +0.000 N 
ATOM      4  N   UNL     1      36.471  48.839  50.206  0.00  0.00    +0.000 NA
ATOM      5  N   UNL     1      35.810  47.846  49.536  0.00  0.00    +0.000 NA
ATOM      6  C   UNL     1      35.628  50.600  47.196  0.00  0.00    +0.000 C 
ATOM      7  C   UNL     1      36.438  51.879  47.492  0.00  0.00    +0.000 C 
ATOM      8  C   UNL     1      36.873  51.286  49.846  0.00  0.00    +0.000 C 
ATOM      9  C   UNL     1      36.414  49.923  49.468  0.00  0.00    +0.000 A 
ATOM     10  C   UNL     1      36.010  50.095  45.800  0.00  0.00    +0.000 C 
ATOM     11  C   UNL     1      36.049  53.583  49.211  0.00  0.00    +0.000 C 
ATOM     12  C   UNL     1      35.348  48.335  48.396  0.00  0.00    +0.000 A 
ENDROOT
BRANCH  12  16
ATOM     13  F   UNL     1      33.903  46.501  47.984  0.00  0.00    +0.000 F 
ATOM     14  F   UNL     1      35.114  47.207  46.334  0.00  0.00    +0.000 F 
ATOM     15  F   UNL     1      33.422  48.400  47.036  0.00  0.00    +0.000 F 
ATOM     16  C   UNL     1      34.456  47.621  47.448  0.00  0.00    +0.000 C 
ENDBRANCH  12  16
BRANCH  11  17
ATOM     17  C   UNL     1      35.930  53.938  50.685  0.00  0.00    +0.000 C 
BRANCH  17  18
ATOM     18  C   UNL     1      37.081  54.827  51.190  0.00  0.00    +0.000 C 
BRANCH  18  19
ATOM     19  N   UNL     1      38.193  54.709  50.223  0.00  0.00    +0.000 NA
ATOM     20  H   UNL     1      38.864  54.017  50.562  0.00  0.00    +0.000 HD
ATOM     21  H   UNL     1      38.711  55.587  50.188  0.00  0.00    +0.000 HD
ENDBRANCH  18  19
BRANCH  18  22
ATOM     22  C   UNL     1      37.545  54.416  52.609  0.00  0.00    +0.000 C 
BRANCH  22  26
ATOM     23  F   UNL     1      36.076  56.761  53.264  0.00  0.00    +0.000 F 
ATOM     24  F   UNL     1      41.208  56.512  55.075  0.00  0.00    +0.000 F 
ATOM     25  F   UNL     1      39.633  58.664  55.683  0.00  0.00    +0.000 F 
ATOM     26  C   UNL     1      38.116  55.558  53.420  0.00  0.00    +0.000 A 
ATOM     27  C   UNL     1      37.334  56.683  53.718  0.00  0.00    +0.000 A 
ATOM     28  C   UNL     1      39.438  55.513  53.882  0.00  0.00    +0.000 A 
ATOM     29  C   UNL     1      39.944  56.562  54.639  0.00  0.00    +0.000 A 
ATOM     30  C   UNL     1      37.836  57.732  54.478  0.00  0.00    +0.000 A 
ATOM     31  C   UNL     1      39.144  57.662  54.942  0.00  0.00    +0.000 A 
ENDBRANCH  22  26
ENDBRANCH  18  22
ENDBRANCH  17  18
ENDBRANCH  11  17
TORSDOF 6
ENDMDL
