MODEL 1
REMARK VINA RESULT:      -8.7      0.000      0.000
REMARK  Name = 24776803
REMARK  8 active torsions:
REMARK  status: ('A' for Active; 'I' for Inactive)
REMARK    1  A    between atoms: N_12  and  C_21
REMARK    2  A    between atoms: C_13  and  C_17
REMARK    3  A    between atoms: C_17  and  C_22
REMARK    4  A    between atoms: C_18  and  C_19
REMARK    5  A    between atoms: C_19  and  C_21
REMARK    6  A    between atoms: C_20  and  C_24
REMARK    7  A    between atoms: C_21  and  C_23
REMARK    8  A    between atoms: C_23  and  C_27
REMARK                            x       y       z     vdW  Elec       q    Type
REMARK                         _______ _______ _______ _____ _____    ______ ____
ROOT
ATOM      1  O   UNL     1      53.053  71.467  41.820  0.00  0.00    +0.000 OA
ATOM      2  N   UNL     1      54.368  70.169  40.463  0.00  0.00    +0.000 N 
ATOM      3  N   UNL     1      55.707  70.206  38.012  0.00  0.00    +0.000 N 
ATOM      4  N   UNL     1      54.082  71.131  36.893  0.00  0.00    +0.000 NA
ATOM      5  N   UNL     1      55.164  71.010  36.062  0.00  0.00    +0.000 NA
ATOM      6  C   UNL     1      53.515  70.471  39.275  0.00  0.00    +0.000 C 
ATOM      7  C   UNL     1      55.462  69.212  40.244  0.00  0.00    +0.000 C 
ATOM      8  C   UNL     1      54.399  70.617  38.061  0.00  0.00    +0.000 A 
ATOM      9  C   UNL     1      56.423  69.706  39.163  0.00  0.00    +0.000 C 
ATOM     10  C   UNL     1      54.043  70.749  41.690  0.00  0.00    +0.000 C 
ATOM     11  C   UNL     1      56.154  70.454  36.738  0.00  0.00    +0.000 A 
ENDROOT
BRANCH  11  15
ATOM     12  F   UNL     1      57.939  68.907  36.564  0.00  0.00    +0.000 F 
ATOM     13  F   UNL     1      58.448  71.015  36.684  0.00  0.00    +0.000 F 
ATOM     14  F   UNL     1      57.560  70.203  34.861  0.00  0.00    +0.000 F 
ATOM     15  C   UNL     1      57.511  70.153  36.216  0.00  0.00    +0.000 C 
ENDBRANCH  11  15
BRANCH   6  16
ATOM     16  C   UNL     1      52.429  69.380  39.054  0.00  0.00    +0.000 C 
BRANCH  16  17
ATOM     17  C   UNL     1      51.023  69.913  38.861  0.00  0.00    +0.000 A 
ATOM     18  C   UNL     1      49.917  69.049  38.910  0.00  0.00    +0.000 A 
ATOM     19  C   UNL     1      50.804  71.268  38.571  0.00  0.00    +0.000 A 
ATOM     20  C   UNL     1      48.631  69.521  38.636  0.00  0.00    +0.000 A 
ATOM     21  C   UNL     1      49.518  71.736  38.291  0.00  0.00    +0.000 A 
ATOM     22  C   UNL     1      48.434  70.862  38.317  0.00  0.00    +0.000 A 
ENDBRANCH  16  17
ENDBRANCH   6  16
BRANCH  10  23
ATOM     23  C   UNL     1      54.982  70.467  42.862  0.00  0.00    +0.000 C 
BRANCH  23  24
ATOM     24  C   UNL     1      55.743  71.683  43.432  0.00  0.00    +0.000 C 
BRANCH  24  25
ATOM     25  N   UNL     1      55.822  72.683  42.340  0.00  0.00    +0.000 NA
ATOM     26  H   UNL     1      56.104  73.589  42.717  0.00  0.00    +0.000 HD
ATOM     27  H   UNL     1      54.889  72.836  41.959  0.00  0.00    +0.000 HD
ENDBRANCH  24  25
BRANCH  24  28
ATOM     28  C   UNL     1      57.169  71.342  43.943  0.00  0.00    +0.000 C 
BRANCH  28  32
ATOM     29  F   UNL     1      58.801  73.615  43.300  0.00  0.00    +0.000 F 
ATOM     30  F   UNL     1      59.769  69.074  40.462  0.00  0.00    +0.000 F 
ATOM     31  F   UNL     1      61.192  71.355  39.950  0.00  0.00    +0.000 F 
ATOM     32  C   UNL     1      58.252  71.343  42.875  0.00  0.00    +0.000 A 
ATOM     33  C   UNL     1      59.016  72.490  42.608  0.00  0.00    +0.000 A 
ATOM     34  C   UNL     1      58.530  70.182  42.138  0.00  0.00    +0.000 A 
ATOM     35  C   UNL     1      59.522  70.193  41.158  0.00  0.00    +0.000 A 
ATOM     36  C   UNL     1      60.000  72.505  41.621  0.00  0.00    +0.000 A 
ATOM     37  C   UNL     1      60.248  71.349  40.900  0.00  0.00    +0.000 A 
ENDBRANCH  28  32
ENDBRANCH  24  28
ENDBRANCH  23  24
ENDBRANCH  10  23
TORSDOF 8
ENDMDL
MODEL 2
REMARK VINA RESULT:      -8.5      1.817      2.476
REMARK  Name = 24776803
REMARK  8 active torsions:
REMARK  status: ('A' for Active; 'I' for Inactive)
REMARK    1  A    between atoms: N_12  and  C_21
REMARK    2  A    between atoms: C_13  and  C_17
REMARK    3  A    between atoms: C_17  and  C_22
REMARK    4  A    between atoms: C_18  and  C_19
REMARK    5  A    between atoms: C_19  and  C_21
REMARK    6  A    between atoms: C_20  and  C_24
REMARK    7  A    between atoms: C_21  and  C_23
REMARK    8  A    between atoms: C_23  and  C_27
REMARK                            x       y       z     vdW  Elec       q    Type
REMARK                         _______ _______ _______ _____ _____    ______ ____
ROOT
ATOM      1  O   UNL     1      51.664  71.068  41.055  0.00  0.00    +0.000 OA
ATOM      2  N   UNL     1      52.823  69.756  39.576  0.00  0.00    +0.000 N 
ATOM      3  N   UNL     1      54.862  69.867  37.669  0.00  0.00    +0.000 N 
ATOM      4  N   UNL     1      54.177  71.708  36.728  0.00  0.00    +0.000 NA
ATOM      5  N   UNL     1      55.364  71.345  36.152  0.00  0.00    +0.000 NA
ATOM      6  C   UNL     1      52.611  70.738  38.471  0.00  0.00    +0.000 C 
ATOM      7  C   UNL     1      53.510  68.510  39.207  0.00  0.00    +0.000 C 
ATOM      8  C   UNL     1      53.856  70.799  37.623  0.00  0.00    +0.000 A 
ATOM      9  C   UNL     1      54.899  68.791  38.634  0.00  0.00    +0.000 C 
ATOM     10  C   UNL     1      52.313  70.046  40.842  0.00  0.00    +0.000 C 
ATOM     11  C   UNL     1      55.786  70.231  36.723  0.00  0.00    +0.000 A 
ENDROOT
BRANCH  11  15
ATOM     12  F   UNL     1      57.623  69.948  35.255  0.00  0.00    +0.000 F 
ATOM     13  F   UNL     1      56.835  68.173  36.226  0.00  0.00    +0.000 F 
ATOM     14  F   UNL     1      57.974  69.640  37.377  0.00  0.00    +0.000 F 
ATOM     15  C   UNL     1      57.040  69.502  36.403  0.00  0.00    +0.000 C 
ENDBRANCH  11  15
BRANCH   6  16
ATOM     16  C   UNL     1      51.362  70.380  37.615  0.00  0.00    +0.000 C 
BRANCH  16  17
ATOM     17  C   UNL     1      50.120  71.188  37.935  0.00  0.00    +0.000 A 
ATOM     18  C   UNL     1      48.846  70.601  37.862  0.00  0.00    +0.000 A 
ATOM     19  C   UNL     1      50.214  72.551  38.252  0.00  0.00    +0.000 A 
ATOM     20  C   UNL     1      47.696  71.367  38.062  0.00  0.00    +0.000 A 
ATOM     21  C   UNL     1      49.061  73.316  38.443  0.00  0.00    +0.000 A 
ATOM     22  C   UNL     1      47.803  72.727  38.342  0.00  0.00    +0.000 A 
ENDBRANCH  16  17
ENDBRANCH   6  16
BRANCH  10  23
ATOM     23  C   UNL     1      52.612  69.046  41.958  0.00  0.00    +0.000 C 
BRANCH  23  24
ATOM     24  C   UNL     1      54.057  69.049  42.504  0.00  0.00    +0.000 C 
BRANCH  24  25
ATOM     25  N   UNL     1      54.018  68.350  43.811  0.00  0.00    +0.000 NA
ATOM     26  H   UNL     1      54.514  67.460  43.745  0.00  0.00    +0.000 HD
ATOM     27  H   UNL     1      53.053  68.097  44.026  0.00  0.00    +0.000 HD
ENDBRANCH  24  25
BRANCH  24  28
ATOM     28  C   UNL     1      54.653  70.471  42.680  0.00  0.00    +0.000 C 
BRANCH  28  32
ATOM     29  F   UNL     1      57.265  69.499  43.370  0.00  0.00    +0.000 F 
ATOM     30  F   UNL     1      56.922  72.474  38.826  0.00  0.00    +0.000 F 
ATOM     31  F   UNL     1      59.341  71.507  39.667  0.00  0.00    +0.000 F 
ATOM     32  C   UNL     1      55.910  70.746  41.868  0.00  0.00    +0.000 A 
ATOM     33  C   UNL     1      57.159  70.241  42.260  0.00  0.00    +0.000 A 
ATOM     34  C   UNL     1      55.847  71.499  40.686  0.00  0.00    +0.000 A 
ATOM     35  C   UNL     1      57.004  71.749  39.950  0.00  0.00    +0.000 A 
ATOM     36  C   UNL     1      58.318  70.499  41.530  0.00  0.00    +0.000 A 
ATOM     37  C   UNL     1      58.231  71.255  40.373  0.00  0.00    +0.000 A 
ENDBRANCH  28  32
ENDBRANCH  24  28
ENDBRANCH  23  24
ENDBRANCH  10  23
TORSDOF 8
ENDMDL
MODEL 3
REMARK VINA RESULT:      -8.5      3.689      7.900
REMARK  Name = 24776803
REMARK  8 active torsions:
REMARK  status: ('A' for Active; 'I' for Inactive)
REMARK    1  A    between atoms: N_12  and  C_21
REMARK    2  A    between atoms: C_13  and  C_17
REMARK    3  A    between atoms: C_17  and  C_22
REMARK    4  A    between atoms: C_18  and  C_19
REMARK    5  A    between atoms: C_19  and  C_21
REMARK    6  A    between atoms: C_20  and  C_24
REMARK    7  A    between atoms: C_21  and  C_23
REMARK    8  A    between atoms: C_23  and  C_27
REMARK                            x       y       z     vdW  Elec       q    Type
REMARK                         _______ _______ _______ _____ _____    ______ ____
ROOT
ATOM      1  O   UNL     1      54.685  71.513  36.337  0.00  0.00    +0.000 OA
ATOM      2  N   UNL     1      55.024  70.859  38.508  0.00  0.00    +0.000 N 
ATOM      3  N   UNL     1      56.587  71.420  40.754  0.00  0.00    +0.000 N 
ATOM      4  N   UNL     1      58.471  71.580  39.671  0.00  0.00    +0.000 NA
ATOM      5  N   UNL     1      58.697  71.908  40.981  0.00  0.00    +0.000 NA
ATOM      6  C   UNL     1      56.500  70.770  38.297  0.00  0.00    +0.000 C 
ATOM      7  C   UNL     1      54.536  70.437  39.829  0.00  0.00    +0.000 C 
ATOM      8  C   UNL     1      57.203  71.254  39.539  0.00  0.00    +0.000 A 
ATOM      9  C   UNL     1      55.162  71.273  40.945  0.00  0.00    +0.000 C 
ATOM     10  C   UNL     1      54.215  71.266  37.447  0.00  0.00    +0.000 C 
ATOM     11  C   UNL     1      57.556  71.817  41.641  0.00  0.00    +0.000 A 
ENDROOT
BRANCH  11  15
ATOM     12  F   UNL     1      57.354  70.964  43.841  0.00  0.00    +0.000 F 
ATOM     13  F   UNL     1      56.172  72.713  43.332  0.00  0.00    +0.000 F 
ATOM     14  F   UNL     1      58.334  72.888  43.594  0.00  0.00    +0.000 F 
ATOM     15  C   UNL     1      57.355  72.097  43.085  0.00  0.00    +0.000 C 
ENDBRANCH  11  15
BRANCH   6  16
ATOM     16  C   UNL     1      56.941  69.325  37.926  0.00  0.00    +0.000 C 
BRANCH  16  17
ATOM     17  C   UNL     1      56.717  68.945  36.475  0.00  0.00    +0.000 A 
ATOM     18  C   UNL     1      57.529  69.480  35.462  0.00  0.00    +0.000 A 
ATOM     19  C   UNL     1      55.658  68.101  36.111  0.00  0.00    +0.000 A 
ATOM     20  C   UNL     1      57.264  69.208  34.118  0.00  0.00    +0.000 A 
ATOM     21  C   UNL     1      55.391  67.837  34.766  0.00  0.00    +0.000 A 
ATOM     22  C   UNL     1      56.188  68.395  33.770  0.00  0.00    +0.000 A 
ENDBRANCH  16  17
ENDBRANCH   6  16
BRANCH  10  23
ATOM     23  C   UNL     1      52.720  71.409  37.727  0.00  0.00    +0.000 C 
BRANCH  23  24
ATOM     24  C   UNL     1      51.860  70.148  37.492  0.00  0.00    +0.000 C 
BRANCH  24  25
ATOM     25  N   UNL     1      52.308  69.563  36.205  0.00  0.00    +0.000 NA
ATOM     26  H   UNL     1      51.590  69.698  35.492  0.00  0.00    +0.000 HD
ATOM     27  H   UNL     1      52.388  68.552  36.308  0.00  0.00    +0.000 HD
ENDBRANCH  24  25
BRANCH  24  28
ATOM     28  C   UNL     1      50.335  70.434  37.443  0.00  0.00    +0.000 C 
BRANCH  28  32
ATOM     29  F   UNL     1      50.312  69.439  40.137  0.00  0.00    +0.000 F 
ATOM     30  F   UNL     1      48.269  74.427  39.394  0.00  0.00    +0.000 F 
ATOM     31  F   UNL     1      48.282  73.295  41.886  0.00  0.00    +0.000 F 
ATOM     32  C   UNL     1      49.788  71.204  38.636  0.00  0.00    +0.000 A 
ATOM     33  C   UNL     1      49.806  70.661  39.930  0.00  0.00    +0.000 A 
ATOM     34  C   UNL     1      49.268  72.497  38.473  0.00  0.00    +0.000 A 
ATOM     35  C   UNL     1      48.765  73.195  39.571  0.00  0.00    +0.000 A 
ATOM     36  C   UNL     1      49.295  71.353  41.026  0.00  0.00    +0.000 A 
ATOM     37  C   UNL     1      48.776  72.624  40.837  0.00  0.00    +0.000 A 
ENDBRANCH  28  32
ENDBRANCH  24  28
ENDBRANCH  23  24
ENDBRANCH  10  23
TORSDOF 8
ENDMDL
MODEL 4
REMARK VINA RESULT:      -7.5      3.811      8.537
REMARK  Name = 24776803
REMARK  8 active torsions:
REMARK  status: ('A' for Active; 'I' for Inactive)
REMARK    1  A    between atoms: N_12  and  C_21
REMARK    2  A    between atoms: C_13  and  C_17
REMARK    3  A    between atoms: C_17  and  C_22
REMARK    4  A    between atoms: C_18  and  C_19
REMARK    5  A    between atoms: C_19  and  C_21
REMARK    6  A    between atoms: C_20  and  C_24
REMARK    7  A    between atoms: C_21  and  C_23
REMARK    8  A    between atoms: C_23  and  C_27
REMARK                            x       y       z     vdW  Elec       q    Type
REMARK                         _______ _______ _______ _____ _____    ______ ____
ROOT
ATOM      1  O   UNL     1      56.011  70.501  36.821  0.00  0.00    +0.000 OA
ATOM      2  N   UNL     1      55.862  70.428  39.107  0.00  0.00    +0.000 N 
ATOM      3  N   UNL     1      57.110  71.369  41.422  0.00  0.00    +0.000 N 
ATOM      4  N   UNL     1      59.143  70.972  40.748  0.00  0.00    +0.000 NA
ATOM      5  N   UNL     1      59.206  71.613  41.956  0.00  0.00    +0.000 NA
ATOM      6  C   UNL     1      57.310  70.088  39.235  0.00  0.00    +0.000 C 
ATOM      7  C   UNL     1      55.093  70.454  40.360  0.00  0.00    +0.000 C 
ATOM      8  C   UNL     1      57.876  70.796  40.440  0.00  0.00    +0.000 A 
ATOM      9  C   UNL     1      55.670  71.472  41.344  0.00  0.00    +0.000 C 
ATOM     10  C   UNL     1      55.328  70.633  37.834  0.00  0.00    +0.000 C 
ATOM     11  C   UNL     1      57.975  71.860  42.367  0.00  0.00    +0.000 A 
ENDROOT
BRANCH  11  15
ATOM     12  F   UNL     1      56.331  73.061  43.577  0.00  0.00    +0.000 F 
ATOM     13  F   UNL     1      58.409  73.596  43.909  0.00  0.00    +0.000 F 
ATOM     14  F   UNL     1      57.621  71.716  44.695  0.00  0.00    +0.000 F 
ATOM     15  C   UNL     1      57.594  72.551  43.625  0.00  0.00    +0.000 C 
ENDBRANCH  11  15
BRANCH   6  16
ATOM     16  C   UNL     1      57.534  68.552  39.326  0.00  0.00    +0.000 C 
BRANCH  16  17
ATOM     17  C   UNL     1      58.792  68.051  38.643  0.00  0.00    +0.000 A 
ATOM     18  C   UNL     1      59.514  66.971  39.176  0.00  0.00    +0.000 A 
ATOM     19  C   UNL     1      59.290  68.693  37.500  0.00  0.00    +0.000 A 
ATOM     20  C   UNL     1      60.724  66.572  38.604  0.00  0.00    +0.000 A 
ATOM     21  C   UNL     1      60.503  68.296  36.935  0.00  0.00    +0.000 A 
ATOM     22  C   UNL     1      61.223  67.241  37.489  0.00  0.00    +0.000 A 
ENDBRANCH  16  17
ENDBRANCH   6  16
BRANCH  10  23
ATOM     23  C   UNL     1      53.858  71.047  37.755  0.00  0.00    +0.000 C 
BRANCH  23  24
ATOM     24  C   UNL     1      52.867  69.949  37.313  0.00  0.00    +0.000 C 
BRANCH  24  25
ATOM     25  N   UNL     1      53.566  69.130  36.294  0.00  0.00    +0.000 NA
ATOM     26  H   UNL     1      53.238  68.164  36.337  0.00  0.00    +0.000 HD
ATOM     27  H   UNL     1      54.557  69.081  36.528  0.00  0.00    +0.000 HD
ENDBRANCH  24  25
BRANCH  24  28
ATOM     28  C   UNL     1      51.541  70.507  36.727  0.00  0.00    +0.000 C 
BRANCH  28  32
ATOM     29  F   UNL     1      51.047  73.178  37.658  0.00  0.00    +0.000 F 
ATOM     30  F   UNL     1      47.917  69.267  39.786  0.00  0.00    +0.000 F 
ATOM     31  F   UNL     1      47.624  71.866  40.593  0.00  0.00    +0.000 F 
ATOM     32  C   UNL     1      50.486  70.872  37.761  0.00  0.00    +0.000 A 
ATOM     33  C   UNL     1      50.294  72.199  38.174  0.00  0.00    +0.000 A 
ATOM     34  C   UNL     1      49.658  69.884  38.316  0.00  0.00    +0.000 A 
ATOM     35  C   UNL     1      48.696  70.226  39.265  0.00  0.00    +0.000 A 
ATOM     36  C   UNL     1      49.340  72.541  39.131  0.00  0.00    +0.000 A 
ATOM     37  C   UNL     1      48.542  71.546  39.672  0.00  0.00    +0.000 A 
ENDBRANCH  28  32
ENDBRANCH  24  28
ENDBRANCH  23  24
ENDBRANCH  10  23
TORSDOF 8
ENDMDL
MODEL 5
REMARK VINA RESULT:      -7.3     24.813     27.320
REMARK  Name = 24776803
REMARK  8 active torsions:
REMARK  status: ('A' for Active; 'I' for Inactive)
REMARK    1  A    between atoms: N_12  and  C_21
REMARK    2  A    between atoms: C_13  and  C_17
REMARK    3  A    between atoms: C_17  and  C_22
REMARK    4  A    between atoms: C_18  and  C_19
REMARK    5  A    between atoms: C_19  and  C_21
REMARK    6  A    between atoms: C_20  and  C_24
REMARK    7  A    between atoms: C_21  and  C_23
REMARK    8  A    between atoms: C_23  and  C_27
REMARK                            x       y       z     vdW  Elec       q    Type
REMARK                         _______ _______ _______ _____ _____    ______ ____
ROOT
ATOM      1  O   UNL     1      30.716  69.544  38.721  0.00  0.00    +0.000 OA
ATOM      2  N   UNL     1      29.812  67.488  39.184  0.00  0.00    +0.000 N 
ATOM      3  N   UNL     1      30.006  65.356  40.977  0.00  0.00    +0.000 N 
ATOM      4  N   UNL     1      32.183  65.287  40.997  0.00  0.00    +0.000 NA
ATOM      5  N   UNL     1      31.715  64.382  41.911  0.00  0.00    +0.000 NA
ATOM      6  C   UNL     1      31.167  66.869  39.296  0.00  0.00    +0.000 C 
ATOM      7  C   UNL     1      28.672  66.570  39.310  0.00  0.00    +0.000 C 
ATOM      8  C   UNL     1      31.151  65.853  40.409  0.00  0.00    +0.000 A 
ATOM      9  C   UNL     1      28.686  65.851  40.659  0.00  0.00    +0.000 C 
ATOM     10  C   UNL     1      29.716  68.853  38.910  0.00  0.00    +0.000 C 
ATOM     11  C   UNL     1      30.394  64.424  41.906  0.00  0.00    +0.000 A 
ENDROOT
BRANCH  11  15
ATOM     12  F   UNL     1      30.169  62.773  43.590  0.00  0.00    +0.000 F 
ATOM     13  F   UNL     1      28.663  62.821  42.027  0.00  0.00    +0.000 F 
ATOM     14  F   UNL     1      28.708  64.381  43.555  0.00  0.00    +0.000 F 
ATOM     15  C   UNL     1      29.489  63.611  42.757  0.00  0.00    +0.000 C 
ENDBRANCH  11  15
BRANCH   6  16
ATOM     16  C   UNL     1      31.619  66.228  37.953  0.00  0.00    +0.000 C 
BRANCH  16  17
ATOM     17  C   UNL     1      30.606  65.294  37.321  0.00  0.00    +0.000 A 
ATOM     18  C   UNL     1      29.763  65.744  36.292  0.00  0.00    +0.000 A 
ATOM     19  C   UNL     1      30.449  63.983  37.793  0.00  0.00    +0.000 A 
ATOM     20  C   UNL     1      28.763  64.916  35.776  0.00  0.00    +0.000 A 
ATOM     21  C   UNL     1      29.444  63.159  37.280  0.00  0.00    +0.000 A 
ATOM     22  C   UNL     1      28.597  63.627  36.278  0.00  0.00    +0.000 A 
ENDBRANCH  16  17
ENDBRANCH   6  16
BRANCH  10  23
ATOM     23  C   UNL     1      28.313  69.457  38.872  0.00  0.00    +0.000 C 
BRANCH  23  24
ATOM     24  C   UNL     1      27.958  70.273  37.609  0.00  0.00    +0.000 C 
BRANCH  24  25
ATOM     25  N   UNL     1      27.196  71.458  38.069  0.00  0.00    +0.000 NA
ATOM     26  H   UNL     1      26.401  71.623  37.451  0.00  0.00    +0.000 HD
ATOM     27  H   UNL     1      27.780  72.289  37.973  0.00  0.00    +0.000 HD
ENDBRANCH  24  25
BRANCH  24  28
ATOM     28  C   UNL     1      27.125  69.477  36.568  0.00  0.00    +0.000 C 
BRANCH  28  32
ATOM     29  F   UNL     1      26.002  67.873  34.468  0.00  0.00    +0.000 F 
ATOM     30  F   UNL     1      31.342  68.870  34.146  0.00  0.00    +0.000 F 
ATOM     31  F   UNL     1      30.109  67.316  32.260  0.00  0.00    +0.000 F 
ATOM     32  C   UNL     1      27.925  68.901  35.410  0.00  0.00    +0.000 A 
ATOM     33  C   UNL     1      27.316  68.123  34.413  0.00  0.00    +0.000 A 
ATOM     34  C   UNL     1      29.301  69.154  35.297  0.00  0.00    +0.000 A 
ATOM     35  C   UNL     1      30.028  68.620  34.234  0.00  0.00    +0.000 A 
ATOM     36  C   UNL     1      28.044  67.580  33.356  0.00  0.00    +0.000 A 
ATOM     37  C   UNL     1      29.403  67.835  33.273  0.00  0.00    +0.000 A 
ENDBRANCH  28  32
ENDBRANCH  24  28
ENDBRANCH  23  24
ENDBRANCH  10  23
TORSDOF 8
ENDMDL
MODEL 6
REMARK VINA RESULT:      -7.2      4.031      5.885
REMARK  Name = 24776803
REMARK  8 active torsions:
REMARK  status: ('A' for Active; 'I' for Inactive)
REMARK    1  A    between atoms: N_12  and  C_21
REMARK    2  A    between atoms: C_13  and  C_17
REMARK    3  A    between atoms: C_17  and  C_22
REMARK    4  A    between atoms: C_18  and  C_19
REMARK    5  A    between atoms: C_19  and  C_21
REMARK    6  A    between atoms: C_20  and  C_24
REMARK    7  A    between atoms: C_21  and  C_23
REMARK    8  A    between atoms: C_23  and  C_27
REMARK                            x       y       z     vdW  Elec       q    Type
REMARK                         _______ _______ _______ _____ _____    ______ ____
ROOT
ATOM      1  O   UNL     1      52.363  67.147  42.240  0.00  0.00    +0.000 OA
ATOM      2  N   UNL     1      54.383  68.202  41.992  0.00  0.00    +0.000 N 
ATOM      3  N   UNL     1      55.764  70.510  42.747  0.00  0.00    +0.000 N 
ATOM      4  N   UNL     1      54.105  71.879  42.395  0.00  0.00    +0.000 NA
ATOM      5  N   UNL     1      55.141  72.587  42.941  0.00  0.00    +0.000 NA
ATOM      6  C   UNL     1      53.715  69.490  41.637  0.00  0.00    +0.000 C 
ATOM      7  C   UNL     1      55.851  68.198  41.924  0.00  0.00    +0.000 C 
ATOM      8  C   UNL     1      54.491  70.630  42.248  0.00  0.00    +0.000 A 
ATOM      9  C   UNL     1      56.453  69.245  42.861  0.00  0.00    +0.000 C 
ATOM     10  C   UNL     1      53.590  67.095  42.296  0.00  0.00    +0.000 C 
ATOM     11  C   UNL     1      56.148  71.761  43.160  0.00  0.00    +0.000 A 
ENDROOT
BRANCH  11  15
ATOM     12  F   UNL     1      58.508  71.750  42.961  0.00  0.00    +0.000 F 
ATOM     13  F   UNL     1      57.669  71.516  44.951  0.00  0.00    +0.000 F 
ATOM     14  F   UNL     1      57.589  73.455  43.947  0.00  0.00    +0.000 F 
ATOM     15  C   UNL     1      57.462  72.118  43.753  0.00  0.00    +0.000 C 
ENDBRANCH  11  15
BRANCH   6  16
ATOM     16  C   UNL     1      53.578  69.662  40.097  0.00  0.00    +0.000 C 
BRANCH  16  17
ATOM     17  C   UNL     1      52.177  69.983  39.616  0.00  0.00    +0.000 A 
ATOM     18  C   UNL     1      51.188  70.401  40.520  0.00  0.00    +0.000 A 
ATOM     19  C   UNL     1      51.826  69.809  38.269  0.00  0.00    +0.000 A 
ATOM     20  C   UNL     1      49.873  70.603  40.095  0.00  0.00    +0.000 A 
ATOM     21  C   UNL     1      50.508  70.004  37.848  0.00  0.00    +0.000 A 
ATOM     22  C   UNL     1      49.531  70.394  38.761  0.00  0.00    +0.000 A 
ENDBRANCH  16  17
ENDBRANCH   6  16
BRANCH  10  23
ATOM     23  C   UNL     1      54.314  65.817  42.720  0.00  0.00    +0.000 C 
BRANCH  23  24
ATOM     24  C   UNL     1      54.406  65.560  44.240  0.00  0.00    +0.000 C 
BRANCH  24  25
ATOM     25  N   UNL     1      53.359  66.394  44.875  0.00  0.00    +0.000 NA
ATOM     26  H   UNL     1      53.359  66.245  45.885  0.00  0.00    +0.000 HD
ATOM     27  H   UNL     1      52.442  66.074  44.564  0.00  0.00    +0.000 HD
ENDBRANCH  24  25
BRANCH  24  28
ATOM     28  C   UNL     1      55.795  65.898  44.845  0.00  0.00    +0.000 C 
BRANCH  28  32
ATOM     29  F   UNL     1      58.306  66.945  43.926  0.00  0.00    +0.000 F 
ATOM     30  F   UNL     1      57.766  61.531  43.811  0.00  0.00    +0.000 F 
ATOM     31  F   UNL     1      60.071  62.711  42.924  0.00  0.00    +0.000 F 
ATOM     32  C   UNL     1      56.944  65.042  44.334  0.00  0.00    +0.000 A 
ATOM     33  C   UNL     1      58.148  65.616  43.898  0.00  0.00    +0.000 A 
ATOM     34  C   UNL     1      56.835  63.643  44.306  0.00  0.00    +0.000 A 
ATOM     35  C   UNL     1      57.891  62.866  43.833  0.00  0.00    +0.000 A 
ATOM     36  C   UNL     1      59.200  64.841  43.415  0.00  0.00    +0.000 A 
ATOM     37  C   UNL     1      59.064  63.463  43.387  0.00  0.00    +0.000 A 
ENDBRANCH  28  32
ENDBRANCH  24  28
ENDBRANCH  23  24
ENDBRANCH  10  23
TORSDOF 8
ENDMDL
MODEL 7
REMARK VINA RESULT:      -6.6     14.985     17.834
REMARK  Name = 24776803
REMARK  8 active torsions:
REMARK  status: ('A' for Active; 'I' for Inactive)
REMARK    1  A    between atoms: N_12  and  C_21
REMARK    2  A    between atoms: C_13  and  C_17
REMARK    3  A    between atoms: C_17  and  C_22
REMARK    4  A    between atoms: C_18  and  C_19
REMARK    5  A    between atoms: C_19  and  C_21
REMARK    6  A    between atoms: C_20  and  C_24
REMARK    7  A    between atoms: C_21  and  C_23
REMARK    8  A    between atoms: C_23  and  C_27
REMARK                            x       y       z     vdW  Elec       q    Type
REMARK                         _______ _______ _______ _____ _____    ______ ____
ROOT
ATOM      1  O   UNL     1      48.520  75.965  50.109  0.00  0.00    +0.000 OA
ATOM      2  N   UNL     1      46.289  76.014  50.636  0.00  0.00    +0.000 N 
ATOM      3  N   UNL     1      44.462  75.108  52.545  0.00  0.00    +0.000 N 
ATOM      4  N   UNL     1      45.260  73.085  52.664  0.00  0.00    +0.000 NA
ATOM      5  N   UNL     1      44.272  73.215  53.602  0.00  0.00    +0.000 NA
ATOM      6  C   UNL     1      46.260  74.535  50.840  0.00  0.00    +0.000 C 
ATOM      7  C   UNL     1      44.999  76.707  50.760  0.00  0.00    +0.000 C 
ATOM      8  C   UNL     1      45.354  74.218  52.003  0.00  0.00    +0.000 A 
ATOM      9  C   UNL     1      44.385  76.494  52.143  0.00  0.00    +0.000 C 
ATOM     10  C   UNL     1      47.496  76.623  50.289  0.00  0.00    +0.000 C 
ATOM     11  C   UNL     1      43.788  74.442  53.537  0.00  0.00    +0.000 A 
ENDROOT
BRANCH  11  15
ATOM     12  F   UNL     1      42.191  74.085  55.249  0.00  0.00    +0.000 F 
ATOM     13  F   UNL     1      41.662  75.465  53.658  0.00  0.00    +0.000 F 
ATOM     14  F   UNL     1      43.147  76.034  55.156  0.00  0.00    +0.000 F 
ATOM     15  C   UNL     1      42.709  75.004  54.388  0.00  0.00    +0.000 C 
ENDBRANCH  11  15
BRANCH   6  16
ATOM     16  C   UNL     1      45.810  73.786  49.554  0.00  0.00    +0.000 C 
BRANCH  16  17
ATOM     17  C   UNL     1      46.609  72.538  49.233  0.00  0.00    +0.000 A 
ATOM     18  C   UNL     1      46.032  71.488  48.501  0.00  0.00    +0.000 A 
ATOM     19  C   UNL     1      47.918  72.383  49.712  0.00  0.00    +0.000 A 
ATOM     20  C   UNL     1      46.732  70.298  48.289  0.00  0.00    +0.000 A 
ATOM     21  C   UNL     1      48.613  71.189  49.505  0.00  0.00    +0.000 A 
ATOM     22  C   UNL     1      48.019  70.145  48.800  0.00  0.00    +0.000 A 
ENDBRANCH  16  17
ENDBRANCH   6  16
BRANCH  10  23
ATOM     23  C   UNL     1      47.495  78.145  50.157  0.00  0.00    +0.000 C 
BRANCH  23  24
ATOM     24  C   UNL     1      48.203  78.926  51.286  0.00  0.00    +0.000 C 
BRANCH  24  25
ATOM     25  N   UNL     1      48.193  78.048  52.480  0.00  0.00    +0.000 NA
ATOM     26  H   UNL     1      48.622  77.149  52.256  0.00  0.00    +0.000 HD
ATOM     27  H   UNL     1      47.228  77.824  52.722  0.00  0.00    +0.000 HD
ENDBRANCH  24  25
BRANCH  24  28
ATOM     28  C   UNL     1      47.531  80.285  51.620  0.00  0.00    +0.000 C 
BRANCH  28  32
ATOM     29  F   UNL     1      46.695  80.012  54.353  0.00  0.00    +0.000 F 
ATOM     30  F   UNL     1      42.731  80.225  50.631  0.00  0.00    +0.000 F 
ATOM     31  F   UNL     1      42.124  79.914  53.282  0.00  0.00    +0.000 F 
ATOM     32  C   UNL     1      46.079  80.190  52.066  0.00  0.00    +0.000 A 
ATOM     33  C   UNL     1      45.737  80.057  53.420  0.00  0.00    +0.000 A 
ATOM     34  C   UNL     1      45.038  80.255  51.127  0.00  0.00    +0.000 A 
ATOM     35  C   UNL     1      43.711  80.165  51.544  0.00  0.00    +0.000 A 
ATOM     36  C   UNL     1      44.410  79.955  53.837  0.00  0.00    +0.000 A 
ATOM     37  C   UNL     1      43.401  80.011  52.890  0.00  0.00    +0.000 A 
ENDBRANCH  28  32
ENDBRANCH  24  28
ENDBRANCH  23  24
ENDBRANCH  10  23
TORSDOF 8
ENDMDL
MODEL 8
REMARK VINA RESULT:      -6.2     24.272     26.564
REMARK  Name = 24776803
REMARK  8 active torsions:
REMARK  status: ('A' for Active; 'I' for Inactive)
REMARK    1  A    between atoms: N_12  and  C_21
REMARK    2  A    between atoms: C_13  and  C_17
REMARK    3  A    between atoms: C_17  and  C_22
REMARK    4  A    between atoms: C_18  and  C_19
REMARK    5  A    between atoms: C_19  and  C_21
REMARK    6  A    between atoms: C_20  and  C_24
REMARK    7  A    between atoms: C_21  and  C_23
REMARK    8  A    between atoms: C_23  and  C_27
REMARK                            x       y       z     vdW  Elec       q    Type
REMARK                         _______ _______ _______ _____ _____    ______ ____
ROOT
ATOM      1  O   UNL     1      31.249  70.461  40.340  0.00  0.00    +0.000 OA
ATOM      2  N   UNL     1      29.464  69.624  39.170  0.00  0.00    +0.000 N 
ATOM      3  N   UNL     1      28.687  68.855  36.599  0.00  0.00    +0.000 N 
ATOM      4  N   UNL     1      29.565  70.572  35.586  0.00  0.00    +0.000 NA
ATOM      5  N   UNL     1      29.072  69.717  34.637  0.00  0.00    +0.000 NA
ATOM      6  C   UNL     1      29.604  70.677  38.119  0.00  0.00    +0.000 C 
ATOM      7  C   UNL     1      28.318  68.716  39.023  0.00  0.00    +0.000 C 
ATOM      8  C   UNL     1      29.305  70.068  36.773  0.00  0.00    +0.000 A 
ATOM      9  C   UNL     1      28.372  67.965  37.693  0.00  0.00    +0.000 C 
ATOM     10  C   UNL     1      30.370  69.608  40.232  0.00  0.00    +0.000 C 
ATOM     11  C   UNL     1      28.543  68.672  35.247  0.00  0.00    +0.000 A 
ENDROOT
BRANCH  11  15
ATOM     12  F   UNL     1      28.520  66.328  34.907  0.00  0.00    +0.000 F 
ATOM     13  F   UNL     1      27.943  67.589  33.236  0.00  0.00    +0.000 F 
ATOM     14  F   UNL     1      26.606  67.358  34.948  0.00  0.00    +0.000 F 
ATOM     15  C   UNL     1      27.907  67.503  34.589  0.00  0.00    +0.000 C 
ENDBRANCH  11  15
BRANCH   6  16
ATOM     16  C   UNL     1      28.685  71.899  38.403  0.00  0.00    +0.000 C 
BRANCH  16  17
ATOM     17  C   UNL     1      29.391  73.240  38.399  0.00  0.00    +0.000 A 
ATOM     18  C   UNL     1      29.569  73.952  37.202  0.00  0.00    +0.000 A 
ATOM     19  C   UNL     1      29.933  73.767  39.581  0.00  0.00    +0.000 A 
ATOM     20  C   UNL     1      30.303  75.139  37.182  0.00  0.00    +0.000 A 
ATOM     21  C   UNL     1      30.674  74.951  39.556  0.00  0.00    +0.000 A 
ATOM     22  C   UNL     1      30.865  75.633  38.357  0.00  0.00    +0.000 A 
ENDBRANCH  16  17
ENDBRANCH   6  16
BRANCH  10  23
ATOM     23  C   UNL     1      30.231  68.474  41.246  0.00  0.00    +0.000 C 
BRANCH  23  24
ATOM     24  C   UNL     1      31.446  67.531  41.382  0.00  0.00    +0.000 C 
BRANCH  24  25
ATOM     25  N   UNL     1      32.529  68.322  42.015  0.00  0.00    +0.000 NA
ATOM     26  H   UNL     1      32.128  69.052  42.606  0.00  0.00    +0.000 HD
ATOM     27  H   UNL     1      33.043  68.824  41.291  0.00  0.00    +0.000 HD
ENDBRANCH  24  25
BRANCH  24  28
ATOM     28  C   UNL     1      31.936  66.948  40.029  0.00  0.00    +0.000 C 
BRANCH  28  32
ATOM     29  F   UNL     1      31.690  66.453  37.211  0.00  0.00    +0.000 F 
ATOM     30  F   UNL     1      28.697  63.298  40.483  0.00  0.00    +0.000 F 
ATOM     31  F   UNL     1      28.551  63.005  37.765  0.00  0.00    +0.000 F 
ATOM     32  C   UNL     1      31.031  65.886  39.422  0.00  0.00    +0.000 A 
ATOM     33  C   UNL     1      30.956  65.694  38.034  0.00  0.00    +0.000 A 
ATOM     34  C   UNL     1      30.259  65.052  40.244  0.00  0.00    +0.000 A 
ATOM     35  C   UNL     1      29.429  64.083  39.680  0.00  0.00    +0.000 A 
ATOM     36  C   UNL     1      30.118  64.734  37.469  0.00  0.00    +0.000 A 
ATOM     37  C   UNL     1      29.357  63.929  38.301  0.00  0.00    +0.000 A 
ENDBRANCH  28  32
ENDBRANCH  24  28
ENDBRANCH  23  24
ENDBRANCH  10  23
TORSDOF 8
ENDMDL
MODEL 9
REMARK VINA RESULT:      -6.1     23.226     25.842
REMARK  Name = 24776803
REMARK  8 active torsions:
REMARK  status: ('A' for Active; 'I' for Inactive)
REMARK    1  A    between atoms: N_12  and  C_21
REMARK    2  A    between atoms: C_13  and  C_17
REMARK    3  A    between atoms: C_17  and  C_22
REMARK    4  A    between atoms: C_18  and  C_19
REMARK    5  A    between atoms: C_19  and  C_21
REMARK    6  A    between atoms: C_20  and  C_24
REMARK    7  A    between atoms: C_21  and  C_23
REMARK    8  A    between atoms: C_23  and  C_27
REMARK                            x       y       z     vdW  Elec       q    Type
REMARK                         _______ _______ _______ _____ _____    ______ ____
ROOT
ATOM      1  O   UNL     1      31.655  69.107  41.237  0.00  0.00    +0.000 OA
ATOM      2  N   UNL     1      30.396  67.237  40.820  0.00  0.00    +0.000 N 
ATOM      3  N   UNL     1      29.538  65.585  38.737  0.00  0.00    +0.000 N 
ATOM      4  N   UNL     1      29.026  67.205  37.374  0.00  0.00    +0.000 NA
ATOM      5  N   UNL     1      28.860  66.017  36.714  0.00  0.00    +0.000 NA
ATOM      6  C   UNL     1      29.656  67.927  39.722  0.00  0.00    +0.000 C 
ATOM      7  C   UNL     1      29.949  65.874  41.141  0.00  0.00    +0.000 C 
ATOM      8  C   UNL     1      29.405  66.944  38.606  0.00  0.00    +0.000 A 
ATOM      9  C   UNL     1      30.061  64.952  39.927  0.00  0.00    +0.000 C 
ATOM     10  C   UNL     1      31.399  67.933  41.497  0.00  0.00    +0.000 C 
ATOM     11  C   UNL     1      29.174  65.031  37.536  0.00  0.00    +0.000 A 
ENDROOT
BRANCH  11  15
ATOM     12  F   UNL     1      30.385  63.021  37.216  0.00  0.00    +0.000 F 
ATOM     13  F   UNL     1      28.619  63.333  35.991  0.00  0.00    +0.000 F 
ATOM     14  F   UNL     1      28.413  62.875  38.117  0.00  0.00    +0.000 F 
ATOM     15  C   UNL     1      29.143  63.582  37.217  0.00  0.00    +0.000 C 
ENDBRANCH  11  15
BRANCH   6  16
ATOM     16  C   UNL     1      28.327  68.554  40.230  0.00  0.00    +0.000 C 
BRANCH  16  17
ATOM     17  C   UNL     1      27.991  69.905  39.629  0.00  0.00    +0.000 A 
ATOM     18  C   UNL     1      26.661  70.350  39.565  0.00  0.00    +0.000 A 
ATOM     19  C   UNL     1      28.996  70.710  39.071  0.00  0.00    +0.000 A 
ATOM     20  C   UNL     1      26.340  71.549  38.925  0.00  0.00    +0.000 A 
ATOM     21  C   UNL     1      28.670  71.905  38.425  0.00  0.00    +0.000 A 
ATOM     22  C   UNL     1      27.343  72.321  38.346  0.00  0.00    +0.000 A 
ENDBRANCH  16  17
ENDBRANCH   6  16
BRANCH  10  23
ATOM     23  C   UNL     1      32.176  67.166  42.566  0.00  0.00    +0.000 C 
BRANCH  23  24
ATOM     24  C   UNL     1      32.097  67.732  44.001  0.00  0.00    +0.000 C 
BRANCH  24  25
ATOM     25  N   UNL     1      33.236  68.670  44.150  0.00  0.00    +0.000 NA
ATOM     26  H   UNL     1      32.943  69.616  43.902  0.00  0.00    +0.000 HD
ATOM     27  H   UNL     1      33.957  68.432  43.470  0.00  0.00    +0.000 HD
ENDBRANCH  24  25
BRANCH  24  28
ATOM     28  C   UNL     1      32.159  66.642  45.105  0.00  0.00    +0.000 C 
BRANCH  28  32
ATOM     29  F   UNL     1      34.754  65.615  44.427  0.00  0.00    +0.000 F 
ATOM     30  F   UNL     1      30.574  62.177  43.849  0.00  0.00    +0.000 F 
ATOM     31  F   UNL     1      33.114  61.388  43.202  0.00  0.00    +0.000 F 
ATOM     32  C   UNL     1      32.415  65.230  44.599  0.00  0.00    +0.000 A 
ATOM     33  C   UNL     1      33.710  64.789  44.284  0.00  0.00    +0.000 A 
ATOM     34  C   UNL     1      31.357  64.321  44.453  0.00  0.00    +0.000 A 
ATOM     35  C   UNL     1      31.600  63.030  43.985  0.00  0.00    +0.000 A 
ATOM     36  C   UNL     1      33.952  63.502  43.807  0.00  0.00    +0.000 A 
ATOM     37  C   UNL     1      32.889  62.626  43.661  0.00  0.00    +0.000 A 
ENDBRANCH  28  32
ENDBRANCH  24  28
ENDBRANCH  23  24
ENDBRANCH  10  23
TORSDOF 8
ENDMDL
