MODEL 1
REMARK VINA RESULT:      -7.8      0.000      0.000
REMARK  Name = 23661697
REMARK  7 active torsions:
REMARK  status: ('A' for Active; 'I' for Inactive)
REMARK    1  A    between atoms: N_12  and  C_19
REMARK    2  A    between atoms: C_13  and  C_20
REMARK    3  A    between atoms: C_17  and  C_18
REMARK    4  A    between atoms: C_18  and  C_19
REMARK    5  A    between atoms: C_19  and  C_21
REMARK    6  A    between atoms: C_21  and  C_23
REMARK    7  A    between atoms: C_22  and  C_24
REMARK                            x       y       z     vdW  Elec       q    Type
REMARK                         _______ _______ _______ _____ _____    ______ ____
ROOT
ATOM      1  O   UNL     1      35.001  52.260  44.744  0.00  0.00    +0.000 OA
ATOM      2  N   UNL     1      36.259  54.150  44.443  0.00  0.00    +0.000 N 
ATOM      3  N   UNL     1      36.035  56.478  43.016  0.00  0.00    +0.000 N 
ATOM      4  N   UNL     1      35.728  55.594  41.052  0.00  0.00    +0.000 NA
ATOM      5  N   UNL     1      35.771  57.546  42.255  0.00  0.00    +0.000 NA
ATOM      6  C   UNL     1      36.239  53.977  42.971  0.00  0.00    +0.000 C 
ATOM      7  C   UNL     1      36.954  55.348  44.943  0.00  0.00    +0.000 C 
ATOM      8  C   UNL     1      36.254  56.599  44.439  0.00  0.00    +0.000 C 
ATOM      9  C   UNL     1      36.007  55.309  42.308  0.00  0.00    +0.000 A 
ATOM     10  C   UNL     1      35.585  53.224  45.233  0.00  0.00    +0.000 C 
ATOM     11  C   UNL     1      37.541  53.330  42.495  0.00  0.00    +0.000 C 
ATOM     12  C   UNL     1      35.571  56.979  41.042  0.00  0.00    +0.000 A 
ENDROOT
BRANCH  12  16
ATOM     13  F   UNL     1      34.026  58.457  39.951  0.00  0.00    +0.000 F 
ATOM     14  F   UNL     1      35.058  56.994  38.707  0.00  0.00    +0.000 F 
ATOM     15  F   UNL     1      36.143  58.714  39.500  0.00  0.00    +0.000 F 
ATOM     16  C   UNL     1      35.199  57.781  39.811  0.00  0.00    +0.000 C 
ENDBRANCH  12  16
BRANCH  10  17
ATOM     17  C   UNL     1      35.585  53.478  46.733  0.00  0.00    +0.000 C 
BRANCH  17  18
ATOM     18  C   UNL     1      34.628  52.577  47.542  0.00  0.00    +0.000 C 
BRANCH  18  19
ATOM     19  N   UNL     1      33.980  53.429  48.563  0.00  0.00    +0.000 NA
ATOM     20  H   UNL     1      34.552  53.408  49.409  0.00  0.00    +0.000 HD
ATOM     21  H   UNL     1      33.086  53.026  48.841  0.00  0.00    +0.000 HD
ENDBRANCH  18  19
BRANCH  18  22
ATOM     22  C   UNL     1      35.384  51.403  48.217  0.00  0.00    +0.000 C 
BRANCH  22  26
ATOM     23  F   UNL     1      37.454  50.689  46.266  0.00  0.00    +0.000 F 
ATOM     24  F   UNL     1      33.777  46.864  47.502  0.00  0.00    +0.000 F 
ATOM     25  F   UNL     1      35.735  46.361  45.653  0.00  0.00    +0.000 F 
ATOM     26  C   UNL     1      35.505  50.076  47.491  0.00  0.00    +0.000 A 
ATOM     27  C   UNL     1      36.523  49.776  46.572  0.00  0.00    +0.000 A 
ATOM     28  C   UNL     1      34.587  49.058  47.807  0.00  0.00    +0.000 A 
ATOM     29  C   UNL     1      34.668  47.813  47.188  0.00  0.00    +0.000 A 
ATOM     30  C   UNL     1      36.603  48.531  45.948  0.00  0.00    +0.000 A 
ATOM     31  C   UNL     1      35.666  47.556  46.257  0.00  0.00    +0.000 A 
ENDBRANCH  22  26
ENDBRANCH  18  22
ENDBRANCH  17  18
ENDBRANCH  10  17
TORSDOF 6
ENDMDL
MODEL 2
REMARK VINA RESULT:      -7.7      3.431      4.521
REMARK  Name = 23661697
REMARK  7 active torsions:
REMARK  status: ('A' for Active; 'I' for Inactive)
REMARK    1  A    between atoms: N_12  and  C_19
REMARK    2  A    between atoms: C_13  and  C_20
REMARK    3  A    between atoms: C_17  and  C_18
REMARK    4  A    between atoms: C_18  and  C_19
REMARK    5  A    between atoms: C_19  and  C_21
REMARK    6  A    between atoms: C_21  and  C_23
REMARK    7  A    between atoms: C_22  and  C_24
REMARK                            x       y       z     vdW  Elec       q    Type
REMARK                         _______ _______ _______ _____ _____    ______ ____
ROOT
ATOM      1  O   UNL     1      36.886  49.978  44.562  0.00  0.00    +0.000 OA
ATOM      2  N   UNL     1      37.500  51.635  43.104  0.00  0.00    +0.000 N 
ATOM      3  N   UNL     1      36.851  52.368  40.545  0.00  0.00    +0.000 N 
ATOM      4  N   UNL     1      37.279  50.470  39.574  0.00  0.00    +0.000 NA
ATOM      5  N   UNL     1      36.427  52.581  39.294  0.00  0.00    +0.000 NA
ATOM      6  C   UNL     1      37.856  50.642  42.063  0.00  0.00    +0.000 C 
ATOM      7  C   UNL     1      37.645  53.049  42.723  0.00  0.00    +0.000 C 
ATOM      8  C   UNL     1      36.705  53.374  41.574  0.00  0.00    +0.000 C 
ATOM      9  C   UNL     1      37.355  51.112  40.723  0.00  0.00    +0.000 A 
ATOM     10  C   UNL     1      37.007  51.178  44.322  0.00  0.00    +0.000 C 
ATOM     11  C   UNL     1      39.368  50.406  42.049  0.00  0.00    +0.000 C 
ATOM     12  C   UNL     1      36.689  51.389  38.708  0.00  0.00    +0.000 A 
ENDROOT
BRANCH  12  16
ATOM     13  F   UNL     1      37.422  51.237  36.426  0.00  0.00    +0.000 F 
ATOM     14  F   UNL     1      35.382  51.919  36.778  0.00  0.00    +0.000 F 
ATOM     15  F   UNL     1      35.901  49.821  37.085  0.00  0.00    +0.000 F 
ATOM     16  C   UNL     1      36.354  51.095  37.259  0.00  0.00    +0.000 C 
ENDBRANCH  12  16
BRANCH  10  17
ATOM     17  C   UNL     1      36.600  52.237  45.335  0.00  0.00    +0.000 C 
BRANCH  17  18
ATOM     18  C   UNL     1      35.077  52.411  45.513  0.00  0.00    +0.000 C 
BRANCH  18  19
ATOM     19  N   UNL     1      34.695  53.667  44.832  0.00  0.00    +0.000 NA
ATOM     20  H   UNL     1      33.902  54.075  45.331  0.00  0.00    +0.000 HD
ATOM     21  H   UNL     1      34.341  53.466  43.897  0.00  0.00    +0.000 HD
ENDBRANCH  18  19
BRANCH  18  22
ATOM     22  C   UNL     1      34.680  52.465  47.011  0.00  0.00    +0.000 C 
BRANCH  22  26
ATOM     23  F   UNL     1      35.895  52.665  49.673  0.00  0.00    +0.000 F 
ATOM     24  F   UNL     1      34.663  47.673  47.871  0.00  0.00    +0.000 F 
ATOM     25  F   UNL     1      35.856  48.012  50.314  0.00  0.00    +0.000 F 
ATOM     26  C   UNL     1      35.032  51.301  47.920  0.00  0.00    +0.000 A 
ATOM     27  C   UNL     1      35.603  51.448  49.194  0.00  0.00    +0.000 A 
ATOM     28  C   UNL     1      34.702  50.002  47.496  0.00  0.00    +0.000 A 
ATOM     29  C   UNL     1      34.980  48.901  48.303  0.00  0.00    +0.000 A 
ATOM     30  C   UNL     1      35.885  50.347  50.001  0.00  0.00    +0.000 A 
ATOM     31  C   UNL     1      35.577  49.074  49.545  0.00  0.00    +0.000 A 
ENDBRANCH  22  26
ENDBRANCH  18  22
ENDBRANCH  17  18
ENDBRANCH  10  17
TORSDOF 6
ENDMDL
MODEL 3
REMARK VINA RESULT:      -7.7      7.440      9.091
REMARK  Name = 23661697
REMARK  7 active torsions:
REMARK  status: ('A' for Active; 'I' for Inactive)
REMARK    1  A    between atoms: N_12  and  C_19
REMARK    2  A    between atoms: C_13  and  C_20
REMARK    3  A    between atoms: C_17  and  C_18
REMARK    4  A    between atoms: C_18  and  C_19
REMARK    5  A    between atoms: C_19  and  C_21
REMARK    6  A    between atoms: C_21  and  C_23
REMARK    7  A    between atoms: C_22  and  C_24
REMARK                            x       y       z     vdW  Elec       q    Type
REMARK                         _______ _______ _______ _____ _____    ______ ____
ROOT
ATOM      1  O   UNL     1      43.271  50.504  36.918  0.00  0.00    +0.000 OA
ATOM      2  N   UNL     1      41.311  51.497  37.567  0.00  0.00    +0.000 N 
ATOM      3  N   UNL     1      38.691  50.740  37.820  0.00  0.00    +0.000 N 
ATOM      4  N   UNL     1      38.396  50.006  35.794  0.00  0.00    +0.000 NA
ATOM      5  N   UNL     1      37.464  50.210  37.880  0.00  0.00    +0.000 NA
ATOM      6  C   UNL     1      40.650  51.113  36.297  0.00  0.00    +0.000 C 
ATOM      7  C   UNL     1      40.470  52.205  38.544  0.00  0.00    +0.000 C 
ATOM      8  C   UNL     1      39.326  51.308  38.988  0.00  0.00    +0.000 C 
ATOM      9  C   UNL     1      39.256  50.619  36.583  0.00  0.00    +0.000 A 
ATOM     10  C   UNL     1      42.636  51.121  37.770  0.00  0.00    +0.000 C 
ATOM     11  C   UNL     1      40.641  52.293  35.324  0.00  0.00    +0.000 C 
ATOM     12  C   UNL     1      37.301  49.749  36.617  0.00  0.00    +0.000 A 
ENDROOT
BRANCH  12  16
ATOM     13  F   UNL     1      35.745  47.952  36.960  0.00  0.00    +0.000 F 
ATOM     14  F   UNL     1      36.178  48.522  34.900  0.00  0.00    +0.000 F 
ATOM     15  F   UNL     1      34.955  49.820  36.160  0.00  0.00    +0.000 F 
ATOM     16  C   UNL     1      36.055  49.014  36.165  0.00  0.00    +0.000 C 
ENDBRANCH  12  16
BRANCH  10  17
ATOM     17  C   UNL     1      43.251  51.487  39.112  0.00  0.00    +0.000 C 
BRANCH  17  18
ATOM     18  C   UNL     1      43.514  50.291  40.051  0.00  0.00    +0.000 C 
BRANCH  18  19
ATOM     19  N   UNL     1      44.752  49.629  39.583  0.00  0.00    +0.000 NA
ATOM     20  H   UNL     1      45.342  50.333  39.133  0.00  0.00    +0.000 HD
ATOM     21  H   UNL     1      44.535  48.959  38.846  0.00  0.00    +0.000 HD
ENDBRANCH  18  19
BRANCH  18  22
ATOM     22  C   UNL     1      42.329  49.289  40.045  0.00  0.00    +0.000 C 
BRANCH  22  26
ATOM     23  F   UNL     1      43.600  47.108  41.537  0.00  0.00    +0.000 F 
ATOM     24  F   UNL     1      39.148  49.358  43.729  0.00  0.00    +0.000 F 
ATOM     25  F   UNL     1      40.409  47.271  44.980  0.00  0.00    +0.000 F 
ATOM     26  C   UNL     1      41.840  48.703  41.357  0.00  0.00    +0.000 A 
ATOM     27  C   UNL     1      42.490  47.664  42.041  0.00  0.00    +0.000 A 
ATOM     28  C   UNL     1      40.709  49.279  41.962  0.00  0.00    +0.000 A 
ATOM     29  C   UNL     1      40.232  48.796  43.178  0.00  0.00    +0.000 A 
ATOM     30  C   UNL     1      42.012  47.176  43.256  0.00  0.00    +0.000 A 
ATOM     31  C   UNL     1      40.877  47.743  43.816  0.00  0.00    +0.000 A 
ENDBRANCH  22  26
ENDBRANCH  18  22
ENDBRANCH  17  18
ENDBRANCH  10  17
TORSDOF 6
ENDMDL
MODEL 4
REMARK VINA RESULT:      -7.6      1.590      2.093
REMARK  Name = 23661697
REMARK  7 active torsions:
REMARK  status: ('A' for Active; 'I' for Inactive)
REMARK    1  A    between atoms: N_12  and  C_19
REMARK    2  A    between atoms: C_13  and  C_20
REMARK    3  A    between atoms: C_17  and  C_18
REMARK    4  A    between atoms: C_18  and  C_19
REMARK    5  A    between atoms: C_19  and  C_21
REMARK    6  A    between atoms: C_21  and  C_23
REMARK    7  A    between atoms: C_22  and  C_24
REMARK                            x       y       z     vdW  Elec       q    Type
REMARK                         _______ _______ _______ _____ _____    ______ ____
ROOT
ATOM      1  O   UNL     1      33.920  53.836  44.474  0.00  0.00    +0.000 OA
ATOM      2  N   UNL     1      35.488  55.433  43.989  0.00  0.00    +0.000 N 
ATOM      3  N   UNL     1      35.732  57.499  42.207  0.00  0.00    +0.000 N 
ATOM      4  N   UNL     1      35.392  56.362  40.385  0.00  0.00    +0.000 NA
ATOM      5  N   UNL     1      35.692  58.455  41.272  0.00  0.00    +0.000 NA
ATOM      6  C   UNL     1      35.521  55.025  42.564  0.00  0.00    +0.000 C 
ATOM      7  C   UNL     1      36.344  56.574  44.353  0.00  0.00    +0.000 C 
ATOM      8  C   UNL     1      35.890  57.818  43.608  0.00  0.00    +0.000 C 
ATOM      9  C   UNL     1      35.550  56.249  41.688  0.00  0.00    +0.000 A 
ATOM     10  C   UNL     1      34.628  54.765  44.855  0.00  0.00    +0.000 C 
ATOM     11  C   UNL     1      36.722  54.114  42.300  0.00  0.00    +0.000 C 
ATOM     12  C   UNL     1      35.468  57.734  40.148  0.00  0.00    +0.000 A 
ENDROOT
BRANCH  12  16
ATOM     13  F   UNL     1      35.643  59.688  38.764  0.00  0.00    +0.000 F 
ATOM     14  F   UNL     1      34.017  58.301  38.335  0.00  0.00    +0.000 F 
ATOM     15  F   UNL     1      36.073  57.763  37.836  0.00  0.00    +0.000 F 
ATOM     16  C   UNL     1      35.302  58.369  38.783  0.00  0.00    +0.000 C 
ENDBRANCH  12  16
BRANCH  10  17
ATOM     17  C   UNL     1      34.588  55.260  46.293  0.00  0.00    +0.000 C 
BRANCH  17  18
ATOM     18  C   UNL     1      34.180  54.195  47.332  0.00  0.00    +0.000 C 
BRANCH  18  19
ATOM     19  N   UNL     1      33.560  54.907  48.471  0.00  0.00    +0.000 NA
ATOM     20  H   UNL     1      33.151  54.213  49.100  0.00  0.00    +0.000 HD
ATOM     21  H   UNL     1      32.769  55.465  48.148  0.00  0.00    +0.000 HD
ENDBRANCH  18  19
BRANCH  18  22
ATOM     22  C   UNL     1      35.402  53.368  47.812  0.00  0.00    +0.000 C 
BRANCH  22  26
ATOM     23  F   UNL     1      35.102  51.410  45.649  0.00  0.00    +0.000 F 
ATOM     24  F   UNL     1      35.332  49.480  50.739  0.00  0.00    +0.000 F 
ATOM     25  F   UNL     1      34.994  47.774  48.621  0.00  0.00    +0.000 F 
ATOM     26  C   UNL     1      35.268  51.866  47.982  0.00  0.00    +0.000 A 
ATOM     27  C   UNL     1      35.138  50.966  46.913  0.00  0.00    +0.000 A 
ATOM     28  C   UNL     1      35.351  51.334  49.281  0.00  0.00    +0.000 A 
ATOM     29  C   UNL     1      35.259  49.960  49.491  0.00  0.00    +0.000 A 
ATOM     30  C   UNL     1      35.041  49.591  47.122  0.00  0.00    +0.000 A 
ATOM     31  C   UNL     1      35.095  49.095  48.416  0.00  0.00    +0.000 A 
ENDBRANCH  22  26
ENDBRANCH  18  22
ENDBRANCH  17  18
ENDBRANCH  10  17
TORSDOF 6
ENDMDL
MODEL 5
REMARK VINA RESULT:      -7.5     14.749     17.143
REMARK  Name = 23661697
REMARK  7 active torsions:
REMARK  status: ('A' for Active; 'I' for Inactive)
REMARK    1  A    between atoms: N_12  and  C_19
REMARK    2  A    between atoms: C_13  and  C_20
REMARK    3  A    between atoms: C_17  and  C_18
REMARK    4  A    between atoms: C_18  and  C_19
REMARK    5  A    between atoms: C_19  and  C_21
REMARK    6  A    between atoms: C_21  and  C_23
REMARK    7  A    between atoms: C_22  and  C_24
REMARK                            x       y       z     vdW  Elec       q    Type
REMARK                         _______ _______ _______ _____ _____    ______ ____
ROOT
ATOM      1  O   UNL     1      28.968  63.398  40.563  0.00  0.00    +0.000 OA
ATOM      2  N   UNL     1      29.049  65.675  40.327  0.00  0.00    +0.000 N 
ATOM      3  N   UNL     1      30.926  67.641  40.669  0.00  0.00    +0.000 N 
ATOM      4  N   UNL     1      31.453  67.192  42.731  0.00  0.00    +0.000 NA
ATOM      5  N   UNL     1      31.953  68.469  40.892  0.00  0.00    +0.000 NA
ATOM      6  C   UNL     1      29.526  65.843  41.720  0.00  0.00    +0.000 C 
ATOM      7  C   UNL     1      28.923  66.909  39.535  0.00  0.00    +0.000 C 
ATOM      8  C   UNL     1      30.285  67.563  39.376  0.00  0.00    +0.000 C 
ATOM      9  C   UNL     1      30.624  66.873  41.758  0.00  0.00    +0.000 A 
ATOM     10  C   UNL     1      28.814  64.388  39.852  0.00  0.00    +0.000 C 
ATOM     11  C   UNL     1      28.363  66.225  42.638  0.00  0.00    +0.000 C 
ATOM     12  C   UNL     1      32.276  68.170  42.172  0.00  0.00    +0.000 A 
ENDROOT
BRANCH  12  16
ATOM     13  F   UNL     1      34.449  67.967  43.173  0.00  0.00    +0.000 F 
ATOM     14  F   UNL     1      33.045  69.352  44.103  0.00  0.00    +0.000 F 
ATOM     15  F   UNL     1      33.973  69.854  42.191  0.00  0.00    +0.000 F 
ATOM     16  C   UNL     1      33.428  68.828  42.905  0.00  0.00    +0.000 C 
ENDBRANCH  12  16
BRANCH  10  17
ATOM     17  C   UNL     1      28.382  64.266  38.399  0.00  0.00    +0.000 C 
BRANCH  17  18
ATOM     18  C   UNL     1      29.329  63.431  37.511  0.00  0.00    +0.000 C 
BRANCH  18  19
ATOM     19  N   UNL     1      30.709  63.689  37.977  0.00  0.00    +0.000 NA
ATOM     20  H   UNL     1      31.134  62.796  38.234  0.00  0.00    +0.000 HD
ATOM     21  H   UNL     1      30.693  64.229  38.841  0.00  0.00    +0.000 HD
ENDBRANCH  18  19
BRANCH  18  22
ATOM     22  C   UNL     1      29.184  63.805  36.012  0.00  0.00    +0.000 C 
BRANCH  22  26
ATOM     23  F   UNL     1      31.370  65.733  35.695  0.00  0.00    +0.000 F 
ATOM     24  F   UNL     1      26.324  67.497  34.641  0.00  0.00    +0.000 F 
ATOM     25  F   UNL     1      28.460  69.202  34.444  0.00  0.00    +0.000 F 
ATOM     26  C   UNL     1      29.036  65.262  35.616  0.00  0.00    +0.000 A 
ATOM     27  C   UNL     1      30.117  66.146  35.465  0.00  0.00    +0.000 A 
ATOM     28  C   UNL     1      27.750  65.741  35.311  0.00  0.00    +0.000 A 
ATOM     29  C   UNL     1      27.561  67.064  34.918  0.00  0.00    +0.000 A 
ATOM     30  C   UNL     1      29.929  67.471  35.076  0.00  0.00    +0.000 A 
ATOM     31  C   UNL     1      28.645  67.926  34.810  0.00  0.00    +0.000 A 
ENDBRANCH  22  26
ENDBRANCH  18  22
ENDBRANCH  17  18
ENDBRANCH  10  17
TORSDOF 6
ENDMDL
MODEL 6
REMARK VINA RESULT:      -7.4      4.818      6.517
REMARK  Name = 23661697
REMARK  7 active torsions:
REMARK  status: ('A' for Active; 'I' for Inactive)
REMARK    1  A    between atoms: N_12  and  C_19
REMARK    2  A    between atoms: C_13  and  C_20
REMARK    3  A    between atoms: C_17  and  C_18
REMARK    4  A    between atoms: C_18  and  C_19
REMARK    5  A    between atoms: C_19  and  C_21
REMARK    6  A    between atoms: C_21  and  C_23
REMARK    7  A    between atoms: C_22  and  C_24
REMARK                            x       y       z     vdW  Elec       q    Type
REMARK                         _______ _______ _______ _____ _____    ______ ____
ROOT
ATOM      1  O   UNL     1      39.318  49.733  42.821  0.00  0.00    +0.000 OA
ATOM      2  N   UNL     1      38.419  51.282  41.394  0.00  0.00    +0.000 N 
ATOM      3  N   UNL     1      38.078  51.525  38.686  0.00  0.00    +0.000 N 
ATOM      4  N   UNL     1      40.154  51.243  38.100  0.00  0.00    +0.000 NA
ATOM      5  N   UNL     1      38.000  51.486  37.352  0.00  0.00    +0.000 NA
ATOM      6  C   UNL     1      39.677  51.352  40.613  0.00  0.00    +0.000 C 
ATOM      7  C   UNL     1      37.306  52.109  40.899  0.00  0.00    +0.000 C 
ATOM      8  C   UNL     1      36.897  51.648  39.510  0.00  0.00    +0.000 C 
ATOM      9  C   UNL     1      39.358  51.377  39.141  0.00  0.00    +0.000 A 
ATOM     10  C   UNL     1      38.355  50.416  42.481  0.00  0.00    +0.000 C 
ATOM     11  C   UNL     1      40.495  52.574  41.033  0.00  0.00    +0.000 C 
ATOM     12  C   UNL     1      39.294  51.299  37.003  0.00  0.00    +0.000 A 
ENDROOT
BRANCH  12  16
ATOM     13  F   UNL     1      40.689  50.182  35.399  0.00  0.00    +0.000 F 
ATOM     14  F   UNL     1      40.288  52.300  35.073  0.00  0.00    +0.000 F 
ATOM     15  F   UNL     1      38.715  50.824  34.733  0.00  0.00    +0.000 F 
ATOM     16  C   UNL     1      39.745  51.151  35.564  0.00  0.00    +0.000 C 
ENDBRANCH  12  16
BRANCH  10  17
ATOM     17  C   UNL     1      37.024  50.337  43.214  0.00  0.00    +0.000 C 
BRANCH  17  18
ATOM     18  C   UNL     1      37.132  50.336  44.753  0.00  0.00    +0.000 C 
BRANCH  18  19
ATOM     19  N   UNL     1      37.879  49.119  45.140  0.00  0.00    +0.000 NA
ATOM     20  H   UNL     1      38.835  49.391  45.379  0.00  0.00    +0.000 HD
ATOM     21  H   UNL     1      37.977  48.496  44.338  0.00  0.00    +0.000 HD
ENDBRANCH  18  19
BRANCH  18  22
ATOM     22  C   UNL     1      35.733  50.349  45.423  0.00  0.00    +0.000 C 
BRANCH  22  26
ATOM     23  F   UNL     1      35.232  51.008  48.236  0.00  0.00    +0.000 F 
ATOM     24  F   UNL     1      34.155  54.869  44.545  0.00  0.00    +0.000 F 
ATOM     25  F   UNL     1      33.681  55.321  47.206  0.00  0.00    +0.000 F 
ATOM     26  C   UNL     1      35.166  51.656  45.944  0.00  0.00    +0.000 A 
ATOM     27  C   UNL     1      34.954  51.930  47.305  0.00  0.00    +0.000 A 
ATOM     28  C   UNL     1      34.903  52.682  45.020  0.00  0.00    +0.000 A 
ATOM     29  C   UNL     1      34.404  53.911  45.448  0.00  0.00    +0.000 A 
ATOM     30  C   UNL     1      34.452  53.158  47.734  0.00  0.00    +0.000 A 
ATOM     31  C   UNL     1      34.172  54.142  46.797  0.00  0.00    +0.000 A 
ENDBRANCH  22  26
ENDBRANCH  18  22
ENDBRANCH  17  18
ENDBRANCH  10  17
TORSDOF 6
ENDMDL
MODEL 7
REMARK VINA RESULT:      -7.4      3.709      8.605
REMARK  Name = 23661697
REMARK  7 active torsions:
REMARK  status: ('A' for Active; 'I' for Inactive)
REMARK    1  A    between atoms: N_12  and  C_19
REMARK    2  A    between atoms: C_13  and  C_20
REMARK    3  A    between atoms: C_17  and  C_18
REMARK    4  A    between atoms: C_18  and  C_19
REMARK    5  A    between atoms: C_19  and  C_21
REMARK    6  A    between atoms: C_21  and  C_23
REMARK    7  A    between atoms: C_22  and  C_24
REMARK                            x       y       z     vdW  Elec       q    Type
REMARK                         _______ _______ _______ _____ _____    ______ ____
ROOT
ATOM      1  O   UNL     1      39.485  50.695  44.291  0.00  0.00    +0.000 OA
ATOM      2  N   UNL     1      37.869  49.304  45.127  0.00  0.00    +0.000 N 
ATOM      3  N   UNL     1      36.531  49.016  47.500  0.00  0.00    +0.000 N 
ATOM      4  N   UNL     1      38.266  48.836  48.799  0.00  0.00    +0.000 NA
ATOM      5  N   UNL     1      35.980  49.011  48.719  0.00  0.00    +0.000 NA
ATOM      6  C   UNL     1      38.724  48.941  46.282  0.00  0.00    +0.000 C 
ATOM      7  C   UNL     1      36.525  48.704  45.105  0.00  0.00    +0.000 C 
ATOM      8  C   UNL     1      35.728  49.178  46.309  0.00  0.00    +0.000 C 
ATOM      9  C   UNL     1      37.893  48.917  47.538  0.00  0.00    +0.000 A 
ATOM     10  C   UNL     1      38.360  50.211  44.193  0.00  0.00    +0.000 C 
ATOM     11  C   UNL     1      39.409  47.595  46.034  0.00  0.00    +0.000 C 
ATOM     12  C   UNL     1      37.071  48.911  49.515  0.00  0.00    +0.000 A 
ENDROOT
BRANCH  12  16
ATOM     13  F   UNL     1      37.319  50.095  51.589  0.00  0.00    +0.000 F 
ATOM     14  F   UNL     1      37.818  47.972  51.582  0.00  0.00    +0.000 F 
ATOM     15  F   UNL     1      35.732  48.606  51.471  0.00  0.00    +0.000 F 
ATOM     16  C   UNL     1      36.987  48.899  51.028  0.00  0.00    +0.000 C 
ENDBRANCH  12  16
BRANCH  10  17
ATOM     17  C   UNL     1      37.423  50.597  43.059  0.00  0.00    +0.000 C 
BRANCH  17  18
ATOM     18  C   UNL     1      36.775  51.990  43.200  0.00  0.00    +0.000 C 
BRANCH  18  19
ATOM     19  N   UNL     1      37.642  52.790  44.092  0.00  0.00    +0.000 NA
ATOM     20  H   UNL     1      37.083  53.548  44.490  0.00  0.00    +0.000 HD
ATOM     21  H   UNL     1      38.368  53.257  43.550  0.00  0.00    +0.000 HD
ENDBRANCH  18  19
BRANCH  18  22
ATOM     22  C   UNL     1      35.339  51.896  43.782  0.00  0.00    +0.000 C 
BRANCH  22  26
ATOM     23  F   UNL     1      34.482  54.672  43.385  0.00  0.00    +0.000 F 
ATOM     24  F   UNL     1      34.404  52.749  48.482  0.00  0.00    +0.000 F 
ATOM     25  F   UNL     1      33.686  55.342  47.966  0.00  0.00    +0.000 F 
ATOM     26  C   UNL     1      34.910  52.860  44.872  0.00  0.00    +0.000 A 
ATOM     27  C   UNL     1      34.496  54.180  44.631  0.00  0.00    +0.000 A 
ATOM     28  C   UNL     1      34.853  52.386  46.194  0.00  0.00    +0.000 A 
ATOM     29  C   UNL     1      34.441  53.223  47.230  0.00  0.00    +0.000 A 
ATOM     30  C   UNL     1      34.087  55.019  45.666  0.00  0.00    +0.000 A 
ATOM     31  C   UNL     1      34.070  54.535  46.966  0.00  0.00    +0.000 A 
ENDBRANCH  22  26
ENDBRANCH  18  22
ENDBRANCH  17  18
ENDBRANCH  10  17
TORSDOF 6
ENDMDL
MODEL 8
REMARK VINA RESULT:      -7.1     12.958     16.280
REMARK  Name = 23661697
REMARK  7 active torsions:
REMARK  status: ('A' for Active; 'I' for Inactive)
REMARK    1  A    between atoms: N_12  and  C_19
REMARK    2  A    between atoms: C_13  and  C_20
REMARK    3  A    between atoms: C_17  and  C_18
REMARK    4  A    between atoms: C_18  and  C_19
REMARK    5  A    between atoms: C_19  and  C_21
REMARK    6  A    between atoms: C_21  and  C_23
REMARK    7  A    between atoms: C_22  and  C_24
REMARK                            x       y       z     vdW  Elec       q    Type
REMARK                         _______ _______ _______ _____ _____    ______ ____
ROOT
ATOM      1  O   UNL     1      29.109  63.150  41.345  0.00  0.00    +0.000 OA
ATOM      2  N   UNL     1      30.172  65.061  42.027  0.00  0.00    +0.000 N 
ATOM      3  N   UNL     1      32.214  65.694  43.740  0.00  0.00    +0.000 N 
ATOM      4  N   UNL     1      31.415  64.736  45.521  0.00  0.00    +0.000 NA
ATOM      5  N   UNL     1      33.217  65.827  44.615  0.00  0.00    +0.000 NA
ATOM      6  C   UNL     1      29.908  64.747  43.451  0.00  0.00    +0.000 C 
ATOM      7  C   UNL     1      30.948  66.284  41.769  0.00  0.00    +0.000 C 
ATOM      8  C   UNL     1      32.336  66.154  42.375  0.00  0.00    +0.000 C 
ATOM      9  C   UNL     1      31.138  65.041  44.270  0.00  0.00    +0.000 A 
ATOM     10  C   UNL     1      29.730  64.170  41.054  0.00  0.00    +0.000 C 
ATOM     11  C   UNL     1      28.696  65.534  43.953  0.00  0.00    +0.000 C 
ATOM     12  C   UNL     1      32.710  65.217  45.712  0.00  0.00    +0.000 A 
ENDROOT
BRANCH  12  16
ATOM     13  F   UNL     1      34.484  65.986  47.135  0.00  0.00    +0.000 F 
ATOM     14  F   UNL     1      34.084  63.843  47.104  0.00  0.00    +0.000 F 
ATOM     15  F   UNL     1      32.695  65.201  48.102  0.00  0.00    +0.000 F 
ATOM     16  C   UNL     1      33.489  65.065  47.002  0.00  0.00    +0.000 C 
ENDBRANCH  12  16
BRANCH  10  17
ATOM     17  C   UNL     1      30.077  64.506  39.612  0.00  0.00    +0.000 C 
BRANCH  17  18
ATOM     18  C   UNL     1      28.914  65.100  38.789  0.00  0.00    +0.000 C 
BRANCH  18  19
ATOM     19  N   UNL     1      27.686  64.964  39.602  0.00  0.00    +0.000 NA
ATOM     20  H   UNL     1      27.011  65.664  39.284  0.00  0.00    +0.000 HD
ATOM     21  H   UNL     1      27.878  65.208  40.573  0.00  0.00    +0.000 HD
ENDBRANCH  18  19
BRANCH  18  22
ATOM     22  C   UNL     1      28.747  64.372  37.429  0.00  0.00    +0.000 C 
BRANCH  22  26
ATOM     23  F   UNL     1      26.954  64.694  35.131  0.00  0.00    +0.000 F 
ATOM     24  F   UNL     1      31.850  67.063  34.817  0.00  0.00    +0.000 F 
ATOM     25  F   UNL     1      30.091  67.229  32.723  0.00  0.00    +0.000 F 
ATOM     26  C   UNL     1      29.071  65.109  36.142  0.00  0.00    +0.000 A 
ATOM     27  C   UNL     1      28.173  65.246  35.072  0.00  0.00    +0.000 A 
ATOM     28  C   UNL     1      30.316  65.754  36.041  0.00  0.00    +0.000 A 
ATOM     29  C   UNL     1      30.654  66.465  34.890  0.00  0.00    +0.000 A 
ATOM     30  C   UNL     1      28.512  65.954  33.919  0.00  0.00    +0.000 A 
ATOM     31  C   UNL     1      29.759  66.555  33.833  0.00  0.00    +0.000 A 
ENDBRANCH  22  26
ENDBRANCH  18  22
ENDBRANCH  17  18
ENDBRANCH  10  17
TORSDOF 6
ENDMDL
MODEL 9
REMARK VINA RESULT:      -6.9     12.780     15.435
REMARK  Name = 23661697
REMARK  7 active torsions:
REMARK  status: ('A' for Active; 'I' for Inactive)
REMARK    1  A    between atoms: N_12  and  C_19
REMARK    2  A    between atoms: C_13  and  C_20
REMARK    3  A    between atoms: C_17  and  C_18
REMARK    4  A    between atoms: C_18  and  C_19
REMARK    5  A    between atoms: C_19  and  C_21
REMARK    6  A    between atoms: C_21  and  C_23
REMARK    7  A    between atoms: C_22  and  C_24
REMARK                            x       y       z     vdW  Elec       q    Type
REMARK                         _______ _______ _______ _____ _____    ______ ____
ROOT
ATOM      1  O   UNL     1      28.562  63.154  39.892  0.00  0.00    +0.000 OA
ATOM      2  N   UNL     1      29.385  65.213  39.318  0.00  0.00    +0.000 N 
ATOM      3  N   UNL     1      28.564  67.316  37.766  0.00  0.00    +0.000 N 
ATOM      4  N   UNL     1      28.248  66.215  35.917  0.00  0.00    +0.000 NA
ATOM      5  N   UNL     1      28.021  68.241  36.967  0.00  0.00    +0.000 NA
ATOM      6  C   UNL     1      29.255  64.906  37.874  0.00  0.00    +0.000 C 
ATOM      7  C   UNL     1      29.874  66.561  39.650  0.00  0.00    +0.000 C 
ATOM      8  C   UNL     1      28.894  67.606  39.143  0.00  0.00    +0.000 C 
ATOM      9  C   UNL     1      28.699  66.104  37.150  0.00  0.00    +0.000 A 
ATOM     10  C   UNL     1      28.989  64.251  40.243  0.00  0.00    +0.000 C 
ATOM     11  C   UNL     1      30.606  64.477  37.299  0.00  0.00    +0.000 C 
ATOM     12  C   UNL     1      27.819  67.538  35.828  0.00  0.00    +0.000 A 
ENDROOT
BRANCH  12  16
ATOM     13  F   UNL     1      25.833  67.927  34.536  0.00  0.00    +0.000 F 
ATOM     14  F   UNL     1      27.694  67.627  33.442  0.00  0.00    +0.000 F 
ATOM     15  F   UNL     1      27.352  69.490  34.528  0.00  0.00    +0.000 F 
ATOM     16  C   UNL     1      27.177  68.140  34.594  0.00  0.00    +0.000 C 
ENDBRANCH  12  16
BRANCH  10  17
ATOM     17  C   UNL     1      29.086  64.636  41.712  0.00  0.00    +0.000 C 
BRANCH  17  18
ATOM     18  C   UNL     1      30.046  63.764  42.547  0.00  0.00    +0.000 C 
BRANCH  18  19
ATOM     19  N   UNL     1      29.363  62.476  42.799  0.00  0.00    +0.000 NA
ATOM     20  H   UNL     1      29.916  61.730  42.372  0.00  0.00    +0.000 HD
ATOM     21  H   UNL     1      28.468  62.451  42.310  0.00  0.00    +0.000 HD
ENDBRANCH  18  19
BRANCH  18  22
ATOM     22  C   UNL     1      30.420  64.450  43.887  0.00  0.00    +0.000 C 
BRANCH  22  26
ATOM     23  F   UNL     1      32.739  63.809  45.565  0.00  0.00    +0.000 F 
ATOM     24  F   UNL     1      33.107  68.224  42.395  0.00  0.00    +0.000 F 
ATOM     25  F   UNL     1      35.171  67.534  44.060  0.00  0.00    +0.000 F 
ATOM     26  C   UNL     1      31.702  65.257  43.982  0.00  0.00    +0.000 A 
ATOM     27  C   UNL     1      32.792  64.902  44.793  0.00  0.00    +0.000 A 
ATOM     28  C   UNL     1      31.839  66.386  43.156  0.00  0.00    +0.000 A 
ATOM     29  C   UNL     1      33.006  67.148  43.186  0.00  0.00    +0.000 A 
ATOM     30  C   UNL     1      33.958  65.666  44.826  0.00  0.00    +0.000 A 
ATOM     31  C   UNL     1      34.055  66.793  44.024  0.00  0.00    +0.000 A 
ENDBRANCH  22  26
ENDBRANCH  18  22
ENDBRANCH  17  18
ENDBRANCH  10  17
TORSDOF 6
ENDMDL
