MODEL 1
REMARK VINA RESULT:      -8.8      0.000      0.000
REMARK  Name = 24776581
REMARK  8 active torsions:
REMARK  status: ('A' for Active; 'I' for Inactive)
REMARK    1  A    between atoms: N_12  and  C_21
REMARK    2  A    between atoms: C_13  and  C_17
REMARK    3  A    between atoms: C_17  and  C_22
REMARK    4  A    between atoms: C_18  and  C_19
REMARK    5  A    between atoms: C_19  and  C_21
REMARK    6  A    between atoms: C_20  and  C_24
REMARK    7  A    between atoms: C_21  and  C_23
REMARK    8  A    between atoms: C_23  and  C_25
REMARK                            x       y       z     vdW  Elec       q    Type
REMARK                         _______ _______ _______ _____ _____    ______ ____
ROOT
ATOM      1  O   UNL     1      40.248  52.961  37.474  0.00  0.00    +0.000 OA
ATOM      2  N   UNL     1      39.187  50.929  37.465  0.00  0.00    +0.000 N 
ATOM      3  N   UNL     1      36.769  49.758  36.740  0.00  0.00    +0.000 N 
ATOM      4  N   UNL     1      35.496  51.237  37.716  0.00  0.00    +0.000 NA
ATOM      5  N   UNL     1      34.697  50.350  37.033  0.00  0.00    +0.000 NA
ATOM      6  C   UNL     1      37.986  51.510  38.116  0.00  0.00    +0.000 C 
ATOM      7  C   UNL     1      39.155  49.482  37.224  0.00  0.00    +0.000 C 
ATOM      8  C   UNL     1      36.748  50.878  37.536  0.00  0.00    +0.000 A 
ATOM      9  C   UNL     1      37.988  49.107  36.316  0.00  0.00    +0.000 C 
ATOM     10  C   UNL     1      40.272  51.763  37.195  0.00  0.00    +0.000 C 
ATOM     11  C   UNL     1      35.467  49.457  36.435  0.00  0.00    +0.000 A 
ENDROOT
BRANCH  11  15
ATOM     12  F   UNL     1      35.860  48.092  34.539  0.00  0.00    +0.000 F 
ATOM     13  F   UNL     1      33.794  48.524  35.044  0.00  0.00    +0.000 F 
ATOM     14  F   UNL     1      34.965  47.156  36.282  0.00  0.00    +0.000 F 
ATOM     15  C   UNL     1      35.021  48.321  35.586  0.00  0.00    +0.000 C 
ENDBRANCH  11  15
BRANCH   6  16
ATOM     16  C   UNL     1      37.994  51.306  39.647  0.00  0.00    +0.000 C 
ATOM     17  C   UNL     1      37.134  52.298  40.414  0.00  0.00    +0.000 C 
ENDBRANCH   6  16
BRANCH  10  18
ATOM     18  C   UNL     1      41.484  51.125  36.529  0.00  0.00    +0.000 C 
BRANCH  18  19
ATOM     19  C   UNL     1      42.148  52.004  35.454  0.00  0.00    +0.000 C 
BRANCH  19  20
ATOM     20  N   UNL     1      41.131  52.620  34.581  0.00  0.00    +0.000 NA
ATOM     21  H   UNL     1      41.097  53.631  34.688  0.00  0.00    +0.000 HD
ATOM     22  H   UNL     1      40.197  52.266  34.796  0.00  0.00    +0.000 HD
ENDBRANCH  19  20
BRANCH  19  23
ATOM     23  C   UNL     1      43.263  51.314  34.622  0.00  0.00    +0.000 C 
BRANCH  23  27
ATOM     24  F   UNL     1      44.731  50.559  36.994  0.00  0.00    +0.000 F 
ATOM     25  F   UNL     1      47.517  53.190  33.127  0.00  0.00    +0.000 F 
ATOM     26  F   UNL     1      48.777  52.336  35.403  0.00  0.00    +0.000 F 
ATOM     27  C   UNL     1      44.714  51.660  34.888  0.00  0.00    +0.000 A 
ATOM     28  C   UNL     1      45.389  51.233  36.042  0.00  0.00    +0.000 A 
ATOM     29  C   UNL     1      45.459  52.336  33.906  0.00  0.00    +0.000 A 
ATOM     30  C   UNL     1      46.823  52.563  34.087  0.00  0.00    +0.000 A 
ATOM     31  C   UNL     1      46.750  51.465  36.227  0.00  0.00    +0.000 A 
ATOM     32  C   UNL     1      47.463  52.129  35.240  0.00  0.00    +0.000 A 
ENDBRANCH  23  27
ENDBRANCH  19  23
ENDBRANCH  18  19
ENDBRANCH  10  18
TORSDOF 7
ENDMDL
MODEL 2
REMARK VINA RESULT:      -8.5     23.492     26.521
REMARK  Name = 24776581
REMARK  8 active torsions:
REMARK  status: ('A' for Active; 'I' for Inactive)
REMARK    1  A    between atoms: N_12  and  C_21
REMARK    2  A    between atoms: C_13  and  C_17
REMARK    3  A    between atoms: C_17  and  C_22
REMARK    4  A    between atoms: C_18  and  C_19
REMARK    5  A    between atoms: C_19  and  C_21
REMARK    6  A    between atoms: C_20  and  C_24
REMARK    7  A    between atoms: C_21  and  C_23
REMARK    8  A    between atoms: C_23  and  C_25
REMARK                            x       y       z     vdW  Elec       q    Type
REMARK                         _______ _______ _______ _____ _____    ______ ____
ROOT
ATOM      1  O   UNL     1      54.747  71.833  36.846  0.00  0.00    +0.000 OA
ATOM      2  N   UNL     1      55.434  70.790  38.769  0.00  0.00    +0.000 N 
ATOM      3  N   UNL     1      56.941  71.261  41.060  0.00  0.00    +0.000 N 
ATOM      4  N   UNL     1      58.673  72.096  40.029  0.00  0.00    +0.000 NA
ATOM      5  N   UNL     1      58.881  72.187  41.386  0.00  0.00    +0.000 NA
ATOM      6  C   UNL     1      56.844  71.186  38.525  0.00  0.00    +0.000 C 
ATOM      7  C   UNL     1      55.193  69.952  39.948  0.00  0.00    +0.000 C 
ATOM      8  C   UNL     1      57.498  71.537  39.836  0.00  0.00    +0.000 A 
ATOM      9  C   UNL     1      55.633  70.666  41.223  0.00  0.00    +0.000 C 
ATOM     10  C   UNL     1      54.462  71.173  37.844  0.00  0.00    +0.000 C 
ATOM     11  C   UNL     1      57.829  71.688  42.013  0.00  0.00    +0.000 A 
ENDROOT
BRANCH  11  15
ATOM     12  F   UNL     1      56.331  71.358  43.818  0.00  0.00    +0.000 F 
ATOM     13  F   UNL     1      57.983  72.729  44.133  0.00  0.00    +0.000 F 
ATOM     14  F   UNL     1      58.346  70.577  44.030  0.00  0.00    +0.000 F 
ATOM     15  C   UNL     1      57.630  71.592  43.483  0.00  0.00    +0.000 C 
ENDBRANCH  11  15
BRANCH   6  16
ATOM     16  C   UNL     1      57.654  70.067  37.833  0.00  0.00    +0.000 C 
ATOM     17  C   UNL     1      57.876  70.286  36.345  0.00  0.00    +0.000 C 
ENDBRANCH   6  16
BRANCH  10  18
ATOM     18  C   UNL     1      53.029  70.743  38.132  0.00  0.00    +0.000 C 
BRANCH  18  19
ATOM     19  C   UNL     1      51.969  71.492  37.305  0.00  0.00    +0.000 C 
BRANCH  19  20
ATOM     20  N   UNL     1      52.159  72.951  37.409  0.00  0.00    +0.000 NA
ATOM     21  H   UNL     1      53.136  73.200  37.546  0.00  0.00    +0.000 HD
ATOM     22  H   UNL     1      51.640  73.335  38.201  0.00  0.00    +0.000 HD
ENDBRANCH  19  20
BRANCH  19  23
ATOM     23  C   UNL     1      50.495  71.093  37.591  0.00  0.00    +0.000 C 
BRANCH  23  27
ATOM     24  F   UNL     1      50.451  70.011  40.270  0.00  0.00    +0.000 F 
ATOM     25  F   UNL     1      47.935  74.780  39.515  0.00  0.00    +0.000 F 
ATOM     26  F   UNL     1      48.052  73.656  42.009  0.00  0.00    +0.000 F 
ATOM     27  C   UNL     1      49.768  71.718  38.764  0.00  0.00    +0.000 A 
ATOM     28  C   UNL     1      49.813  71.169  40.054  0.00  0.00    +0.000 A 
ATOM     29  C   UNL     1      49.112  72.951  38.599  0.00  0.00    +0.000 A 
ATOM     30  C   UNL     1      48.535  73.595  39.693  0.00  0.00    +0.000 A 
ATOM     31  C   UNL     1      49.231  71.808  41.147  0.00  0.00    +0.000 A 
ATOM     32  C   UNL     1      48.595  73.027  40.958  0.00  0.00    +0.000 A 
ENDBRANCH  23  27
ENDBRANCH  19  23
ENDBRANCH  18  19
ENDBRANCH  10  18
TORSDOF 7
ENDMDL
MODEL 3
REMARK VINA RESULT:      -8.0      1.602      2.107
REMARK  Name = 24776581
REMARK  8 active torsions:
REMARK  status: ('A' for Active; 'I' for Inactive)
REMARK    1  A    between atoms: N_12  and  C_21
REMARK    2  A    between atoms: C_13  and  C_17
REMARK    3  A    between atoms: C_17  and  C_22
REMARK    4  A    between atoms: C_18  and  C_19
REMARK    5  A    between atoms: C_19  and  C_21
REMARK    6  A    between atoms: C_20  and  C_24
REMARK    7  A    between atoms: C_21  and  C_23
REMARK    8  A    between atoms: C_23  and  C_25
REMARK                            x       y       z     vdW  Elec       q    Type
REMARK                         _______ _______ _______ _____ _____    ______ ____
ROOT
ATOM      1  O   UNL     1      40.885  53.953  38.083  0.00  0.00    +0.000 OA
ATOM      2  N   UNL     1      40.226  51.795  37.677  0.00  0.00    +0.000 N 
ATOM      3  N   UNL     1      37.953  50.308  37.073  0.00  0.00    +0.000 N 
ATOM      4  N   UNL     1      36.694  51.170  38.633  0.00  0.00    +0.000 NA
ATOM      5  N   UNL     1      35.930  50.315  37.872  0.00  0.00    +0.000 NA
ATOM      6  C   UNL     1      39.121  51.907  38.662  0.00  0.00    +0.000 C 
ATOM      7  C   UNL     1      40.397  50.483  37.043  0.00  0.00    +0.000 C 
ATOM      8  C   UNL     1      37.916  51.165  38.146  0.00  0.00    +0.000 A 
ATOM      9  C   UNL     1      39.139  50.080  36.279  0.00  0.00    +0.000 C 
ATOM     10  C   UNL     1      41.057  52.898  37.474  0.00  0.00    +0.000 C 
ATOM     11  C   UNL     1      36.690  49.797  36.922  0.00  0.00    +0.000 A 
ENDROOT
BRANCH  11  15
ATOM     12  F   UNL     1      36.923  49.025  34.694  0.00  0.00    +0.000 F 
ATOM     13  F   UNL     1      34.948  48.910  35.587  0.00  0.00    +0.000 F 
ATOM     14  F   UNL     1      36.527  47.545  36.233  0.00  0.00    +0.000 F 
ATOM     15  C   UNL     1      36.272  48.829  35.874  0.00  0.00    +0.000 C 
ENDBRANCH  11  15
BRANCH   6  16
ATOM     16  C   UNL     1      39.513  51.345  40.046  0.00  0.00    +0.000 C 
ATOM     17  C   UNL     1      39.732  52.407  41.112  0.00  0.00    +0.000 C 
ENDBRANCH   6  16
BRANCH  10  18
ATOM     18  C   UNL     1      42.179  52.738  36.457  0.00  0.00    +0.000 C 
BRANCH  18  19
ATOM     19  C   UNL     1      43.549  52.412  37.078  0.00  0.00    +0.000 C 
BRANCH  19  20
ATOM     20  N   UNL     1      44.393  53.619  37.146  0.00  0.00    +0.000 NA
ATOM     21  H   UNL     1      44.281  54.211  36.327  0.00  0.00    +0.000 HD
ATOM     22  H   UNL     1      45.383  53.374  37.204  0.00  0.00    +0.000 HD
ENDBRANCH  19  20
BRANCH  19  23
ATOM     23  C   UNL     1      44.312  51.226  36.425  0.00  0.00    +0.000 C 
BRANCH  23  27
ATOM     24  F   UNL     1      44.726  52.343  33.792  0.00  0.00    +0.000 F 
ATOM     25  F   UNL     1      49.185  51.303  36.738  0.00  0.00    +0.000 F 
ATOM     26  F   UNL     1      49.400  52.434  34.255  0.00  0.00    +0.000 F 
ATOM     27  C   UNL     1      45.667  51.469  35.792  0.00  0.00    +0.000 A 
ATOM     28  C   UNL     1      45.810  52.052  34.524  0.00  0.00    +0.000 A 
ATOM     29  C   UNL     1      46.835  51.212  36.531  0.00  0.00    +0.000 A 
ATOM     30  C   UNL     1      48.087  51.536  36.007  0.00  0.00    +0.000 A 
ATOM     31  C   UNL     1      47.059  52.370  33.996  0.00  0.00    +0.000 A 
ATOM     32  C   UNL     1      48.196  52.112  34.748  0.00  0.00    +0.000 A 
ENDBRANCH  23  27
ENDBRANCH  19  23
ENDBRANCH  18  19
ENDBRANCH  10  18
TORSDOF 7
ENDMDL
MODEL 4
REMARK VINA RESULT:      -8.0      5.846      8.987
REMARK  Name = 24776581
REMARK  8 active torsions:
REMARK  status: ('A' for Active; 'I' for Inactive)
REMARK    1  A    between atoms: N_12  and  C_21
REMARK    2  A    between atoms: C_13  and  C_17
REMARK    3  A    between atoms: C_17  and  C_22
REMARK    4  A    between atoms: C_18  and  C_19
REMARK    5  A    between atoms: C_19  and  C_21
REMARK    6  A    between atoms: C_20  and  C_24
REMARK    7  A    between atoms: C_21  and  C_23
REMARK    8  A    between atoms: C_23  and  C_25
REMARK                            x       y       z     vdW  Elec       q    Type
REMARK                         _______ _______ _______ _____ _____    ______ ____
ROOT
ATOM      1  O   UNL     1      36.755  52.949  40.158  0.00  0.00    +0.000 OA
ATOM      2  N   UNL     1      37.358  51.943  42.128  0.00  0.00    +0.000 N 
ATOM      3  N   UNL     1      36.291  51.196  44.586  0.00  0.00    +0.000 N 
ATOM      4  N   UNL     1      35.333  53.109  45.013  0.00  0.00    +0.000 NA
ATOM      5  N   UNL     1      35.003  52.220  46.008  0.00  0.00    +0.000 NA
ATOM      6  C   UNL     1      36.765  53.050  42.919  0.00  0.00    +0.000 C 
ATOM      7  C   UNL     1      38.037  50.892  42.894  0.00  0.00    +0.000 C 
ATOM      8  C   UNL     1      36.111  52.487  44.154  0.00  0.00    +0.000 A 
ATOM      9  C   UNL     1      37.072  50.217  43.864  0.00  0.00    +0.000 C 
ATOM     10  C   UNL     1      37.296  52.007  40.735  0.00  0.00    +0.000 C 
ATOM     11  C   UNL     1      35.576  51.057  45.748  0.00  0.00    +0.000 A 
ENDROOT
BRANCH  11  15
ATOM     12  F   UNL     1      34.458  49.854  47.456  0.00  0.00    +0.000 F 
ATOM     13  F   UNL     1      36.603  49.577  47.283  0.00  0.00    +0.000 F 
ATOM     14  F   UNL     1      35.261  48.718  45.788  0.00  0.00    +0.000 F 
ATOM     15  C   UNL     1      35.481  49.814  46.558  0.00  0.00    +0.000 C 
ENDBRANCH  11  15
BRANCH   6  16
ATOM     16  C   UNL     1      37.818  54.102  43.333  0.00  0.00    +0.000 C 
ATOM     17  C   UNL     1      38.380  53.904  44.732  0.00  0.00    +0.000 C 
ENDBRANCH   6  16
BRANCH  10  18
ATOM     18  C   UNL     1      37.919  50.851  39.963  0.00  0.00    +0.000 C 
BRANCH  18  19
ATOM     19  C   UNL     1      38.917  51.287  38.875  0.00  0.00    +0.000 C 
BRANCH  19  20
ATOM     20  N   UNL     1      39.554  52.568  39.233  0.00  0.00    +0.000 NA
ATOM     21  H   UNL     1      40.188  52.472  40.022  0.00  0.00    +0.000 HD
ATOM     22  H   UNL     1      38.856  53.267  39.495  0.00  0.00    +0.000 HD
ENDBRANCH  19  20
BRANCH  19  23
ATOM     23  C   UNL     1      38.354  51.322  37.428  0.00  0.00    +0.000 C 
BRANCH  23  27
ATOM     24  F   UNL     1      35.697  52.451  37.557  0.00  0.00    +0.000 F 
ATOM     25  F   UNL     1      36.092  47.323  35.771  0.00  0.00    +0.000 F 
ATOM     26  F   UNL     1      33.656  48.567  35.880  0.00  0.00    +0.000 F 
ATOM     27  C   UNL     1      37.078  50.570  37.106  0.00  0.00    +0.000 A 
ATOM     28  C   UNL     1      35.815  51.181  37.148  0.00  0.00    +0.000 A 
ATOM     29  C   UNL     1      37.150  49.246  36.640  0.00  0.00    +0.000 A 
ATOM     30  C   UNL     1      35.996  48.577  36.233  0.00  0.00    +0.000 A 
ATOM     31  C   UNL     1      34.660  50.512  36.748  0.00  0.00    +0.000 A 
ATOM     32  C   UNL     1      34.760  49.208  36.286  0.00  0.00    +0.000 A 
ENDBRANCH  23  27
ENDBRANCH  19  23
ENDBRANCH  18  19
ENDBRANCH  10  18
TORSDOF 7
ENDMDL
MODEL 5
REMARK VINA RESULT:      -7.9     11.318     13.406
REMARK  Name = 24776581
REMARK  8 active torsions:
REMARK  status: ('A' for Active; 'I' for Inactive)
REMARK    1  A    between atoms: N_12  and  C_21
REMARK    2  A    between atoms: C_13  and  C_17
REMARK    3  A    between atoms: C_17  and  C_22
REMARK    4  A    between atoms: C_18  and  C_19
REMARK    5  A    between atoms: C_19  and  C_21
REMARK    6  A    between atoms: C_20  and  C_24
REMARK    7  A    between atoms: C_21  and  C_23
REMARK    8  A    between atoms: C_23  and  C_25
REMARK                            x       y       z     vdW  Elec       q    Type
REMARK                         _______ _______ _______ _____ _____    ______ ____
ROOT
ATOM      1  O   UNL     1      35.068  52.964  50.658  0.00  0.00    +0.000 OA
ATOM      2  N   UNL     1      36.486  51.616  49.463  0.00  0.00    +0.000 N 
ATOM      3  N   UNL     1      36.465  49.342  47.860  0.00  0.00    +0.000 N 
ATOM      4  N   UNL     1      35.269  48.118  49.214  0.00  0.00    +0.000 NA
ATOM      5  N   UNL     1      35.492  47.406  48.058  0.00  0.00    +0.000 NA
ATOM      6  C   UNL     1      35.932  50.399  50.106  0.00  0.00    +0.000 C 
ATOM      7  C   UNL     1      37.601  51.406  48.533  0.00  0.00    +0.000 C 
ATOM      8  C   UNL     1      35.857  49.288  49.091  0.00  0.00    +0.000 A 
ATOM      9  C   UNL     1      37.184  50.500  47.378  0.00  0.00    +0.000 C 
ATOM     10  C   UNL     1      35.971  52.860  49.828  0.00  0.00    +0.000 C 
ATOM     11  C   UNL     1      36.211  48.149  47.233  0.00  0.00    +0.000 A 
ENDROOT
BRANCH  11  15
ATOM     12  F   UNL     1      36.300  48.681  44.925  0.00  0.00    +0.000 F 
ATOM     13  F   UNL     1      36.182  46.581  45.461  0.00  0.00    +0.000 F 
ATOM     14  F   UNL     1      38.029  47.698  45.797  0.00  0.00    +0.000 F 
ATOM     15  C   UNL     1      36.676  47.776  45.871  0.00  0.00    +0.000 C 
ENDBRANCH  11  15
BRANCH   6  16
ATOM     16  C   UNL     1      36.781  49.934  51.309  0.00  0.00    +0.000 C 
ATOM     17  C   UNL     1      35.973  49.340  52.452  0.00  0.00    +0.000 C 
ENDBRANCH   6  16
BRANCH  10  18
ATOM     18  C   UNL     1      36.571  54.083  49.146  0.00  0.00    +0.000 C 
BRANCH  18  19
ATOM     19  C   UNL     1      35.541  55.166  48.776  0.00  0.00    +0.000 C 
BRANCH  19  20
ATOM     20  N   UNL     1      35.022  55.829  49.986  0.00  0.00    +0.000 NA
ATOM     21  H   UNL     1      34.208  56.404  49.788  0.00  0.00    +0.000 HD
ATOM     22  H   UNL     1      35.726  56.443  50.401  0.00  0.00    +0.000 HD
ENDBRANCH  19  20
BRANCH  19  23
ATOM     23  C   UNL     1      34.385  54.699  47.849  0.00  0.00    +0.000 C 
BRANCH  23  27
ATOM     24  F   UNL     1      34.494  51.946  46.975  0.00  0.00    +0.000 F 
ATOM     25  F   UNL     1      35.220  55.758  43.155  0.00  0.00    +0.000 F 
ATOM     26  F   UNL     1      35.216  53.104  42.480  0.00  0.00    +0.000 F 
ATOM     27  C   UNL     1      34.698  54.252  46.435  0.00  0.00    +0.000 A 
ATOM     28  C   UNL     1      34.699  52.901  46.057  0.00  0.00    +0.000 A 
ATOM     29  C   UNL     1      34.888  55.214  45.428  0.00  0.00    +0.000 A 
ATOM     30  C   UNL     1      35.065  54.822  44.101  0.00  0.00    +0.000 A 
ATOM     31  C   UNL     1      34.883  52.506  44.734  0.00  0.00    +0.000 A 
ATOM     32  C   UNL     1      35.061  53.476  43.758  0.00  0.00    +0.000 A 
ENDBRANCH  23  27
ENDBRANCH  19  23
ENDBRANCH  18  19
ENDBRANCH  10  18
TORSDOF 7
ENDMDL
MODEL 6
REMARK VINA RESULT:      -7.7     22.297     24.120
REMARK  Name = 24776581
REMARK  8 active torsions:
REMARK  status: ('A' for Active; 'I' for Inactive)
REMARK    1  A    between atoms: N_12  and  C_21
REMARK    2  A    between atoms: C_13  and  C_17
REMARK    3  A    between atoms: C_17  and  C_22
REMARK    4  A    between atoms: C_18  and  C_19
REMARK    5  A    between atoms: C_19  and  C_21
REMARK    6  A    between atoms: C_20  and  C_24
REMARK    7  A    between atoms: C_21  and  C_23
REMARK    8  A    between atoms: C_23  and  C_25
REMARK                            x       y       z     vdW  Elec       q    Type
REMARK                         _______ _______ _______ _____ _____    ______ ____
ROOT
ATOM      1  O   UNL     1      53.791  70.304  43.001  0.00  0.00    +0.000 OA
ATOM      2  N   UNL     1      52.461  70.080  41.146  0.00  0.00    +0.000 N 
ATOM      3  N   UNL     1      50.213  71.204  39.953  0.00  0.00    +0.000 N 
ATOM      4  N   UNL     1      48.968  71.186  41.744  0.00  0.00    +0.000 NA
ATOM      5  N   UNL     1      48.275  71.810  40.733  0.00  0.00    +0.000 NA
ATOM      6  C   UNL     1      51.234  70.069  41.981  0.00  0.00    +0.000 C 
ATOM      7  C   UNL     1      52.265  69.888  39.705  0.00  0.00    +0.000 C 
ATOM      8  C   UNL     1      50.140  70.822  41.270  0.00  0.00    +0.000 A 
ATOM      9  C   UNL     1      51.378  70.986  39.125  0.00  0.00    +0.000 C 
ATOM     10  C   UNL     1      53.700  70.199  41.778  0.00  0.00    +0.000 C 
ATOM     11  C   UNL     1      49.031  71.828  39.648  0.00  0.00    +0.000 A 
ENDROOT
BRANCH  11  15
ATOM     12  F   UNL     1      47.563  73.188  38.379  0.00  0.00    +0.000 F 
ATOM     13  F   UNL     1      48.428  71.461  37.389  0.00  0.00    +0.000 F 
ATOM     14  F   UNL     1      49.666  73.204  37.839  0.00  0.00    +0.000 F 
ATOM     15  C   UNL     1      48.679  72.410  38.326  0.00  0.00    +0.000 C 
ENDBRANCH  11  15
BRANCH   6  16
ATOM     16  C   UNL     1      50.750  68.635  42.289  0.00  0.00    +0.000 C 
ATOM     17  C   UNL     1      50.922  68.217  43.741  0.00  0.00    +0.000 C 
ENDBRANCH   6  16
BRANCH  10  18
ATOM     18  C   UNL     1      54.933  70.204  40.884  0.00  0.00    +0.000 C 
BRANCH  18  19
ATOM     19  C   UNL     1      56.075  71.102  41.391  0.00  0.00    +0.000 C 
BRANCH  19  20
ATOM     20  N   UNL     1      55.623  72.500  41.519  0.00  0.00    +0.000 NA
ATOM     21  H   UNL     1      54.946  72.750  40.803  0.00  0.00    +0.000 HD
ATOM     22  H   UNL     1      56.406  73.150  41.429  0.00  0.00    +0.000 HD
ENDBRANCH  19  20
BRANCH  19  23
ATOM     23  C   UNL     1      57.403  71.009  40.591  0.00  0.00    +0.000 C 
BRANCH  23  27
ATOM     24  F   UNL     1      56.836  72.979  38.554  0.00  0.00    +0.000 F 
ATOM     25  F   UNL     1      58.082  67.966  36.832  0.00  0.00    +0.000 F 
ATOM     26  F   UNL     1      57.594  69.967  35.029  0.00  0.00    +0.000 F 
ATOM     27  C   UNL     1      57.359  70.726  39.103  0.00  0.00    +0.000 A 
ATOM     28  C   UNL     1      57.117  71.731  38.154  0.00  0.00    +0.000 A 
ATOM     29  C   UNL     1      57.679  69.442  38.630  0.00  0.00    +0.000 A 
ATOM     30  C   UNL     1      57.753  69.192  37.259  0.00  0.00    +0.000 A 
ATOM     31  C   UNL     1      57.183  71.483  36.785  0.00  0.00    +0.000 A 
ATOM     32  C   UNL     1      57.507  70.207  36.344  0.00  0.00    +0.000 A 
ENDBRANCH  23  27
ENDBRANCH  19  23
ENDBRANCH  18  19
ENDBRANCH  10  18
TORSDOF 7
ENDMDL
MODEL 7
REMARK VINA RESULT:      -7.7      9.419     12.322
REMARK  Name = 24776581
REMARK  8 active torsions:
REMARK  status: ('A' for Active; 'I' for Inactive)
REMARK    1  A    between atoms: N_12  and  C_21
REMARK    2  A    between atoms: C_13  and  C_17
REMARK    3  A    between atoms: C_17  and  C_22
REMARK    4  A    between atoms: C_18  and  C_19
REMARK    5  A    between atoms: C_19  and  C_21
REMARK    6  A    between atoms: C_20  and  C_24
REMARK    7  A    between atoms: C_21  and  C_23
REMARK    8  A    between atoms: C_23  and  C_25
REMARK                            x       y       z     vdW  Elec       q    Type
REMARK                         _______ _______ _______ _____ _____    ______ ____
ROOT
ATOM      1  O   UNL     1      38.357  54.871  43.933  0.00  0.00    +0.000 OA
ATOM      2  N   UNL     1      36.516  55.704  42.851  0.00  0.00    +0.000 N 
ATOM      3  N   UNL     1      35.748  57.812  41.204  0.00  0.00    +0.000 N 
ATOM      4  N   UNL     1      36.655  59.388  42.410  0.00  0.00    +0.000 NA
ATOM      5  N   UNL     1      36.140  59.950  41.266  0.00  0.00    +0.000 NA
ATOM      6  C   UNL     1      36.752  57.058  43.411  0.00  0.00    +0.000 C 
ATOM      7  C   UNL     1      35.312  55.546  42.028  0.00  0.00    +0.000 C 
ATOM      8  C   UNL     1      36.418  58.095  42.369  0.00  0.00    +0.000 A 
ATOM      9  C   UNL     1      35.352  56.476  40.819  0.00  0.00    +0.000 C 
ATOM     10  C   UNL     1      37.395  54.675  43.192  0.00  0.00    +0.000 C 
ATOM     11  C   UNL     1      35.596  58.996  40.530  0.00  0.00    +0.000 A 
ENDROOT
BRANCH  11  15
ATOM     12  F   UNL     1      33.614  58.805  39.245  0.00  0.00    +0.000 F 
ATOM     13  F   UNL     1      35.494  58.392  38.243  0.00  0.00    +0.000 F 
ATOM     14  F   UNL     1      34.961  60.443  38.776  0.00  0.00    +0.000 F 
ATOM     15  C   UNL     1      34.929  59.157  39.210  0.00  0.00    +0.000 C 
ENDBRANCH  11  15
BRANCH   6  16
ATOM     16  C   UNL     1      35.911  57.321  44.679  0.00  0.00    +0.000 C 
ATOM     17  C   UNL     1      36.725  57.409  45.961  0.00  0.00    +0.000 C 
ENDBRANCH   6  16
BRANCH  10  18
ATOM     18  C   UNL     1      37.113  53.302  42.597  0.00  0.00    +0.000 C 
BRANCH  18  19
ATOM     19  C   UNL     1      36.726  52.233  43.635  0.00  0.00    +0.000 C 
BRANCH  19  20
ATOM     20  N   UNL     1      37.183  50.898  43.207  0.00  0.00    +0.000 NA
ATOM     21  H   UNL     1      38.146  50.910  42.881  0.00  0.00    +0.000 HD
ATOM     22  H   UNL     1      36.612  50.543  42.437  0.00  0.00    +0.000 HD
ENDBRANCH  19  20
BRANCH  19  23
ATOM     23  C   UNL     1      35.228  52.213  44.045  0.00  0.00    +0.000 C 
BRANCH  23  27
ATOM     24  F   UNL     1      35.246  50.637  46.468  0.00  0.00    +0.000 F 
ATOM     25  F   UNL     1      33.894  55.887  46.973  0.00  0.00    +0.000 F 
ATOM     26  F   UNL     1      34.035  54.276  49.181  0.00  0.00    +0.000 F 
ATOM     27  C   UNL     1      34.822  52.725  45.413  0.00  0.00    +0.000 A 
ATOM     28  C   UNL     1      34.888  51.925  46.564  0.00  0.00    +0.000 A 
ATOM     29  C   UNL     1      34.471  54.076  45.573  0.00  0.00    +0.000 A 
ATOM     30  C   UNL     1      34.204  54.590  46.842  0.00  0.00    +0.000 A 
ATOM     31  C   UNL     1      34.616  52.435  47.831  0.00  0.00    +0.000 A 
ATOM     32  C   UNL     1      34.277  53.774  47.963  0.00  0.00    +0.000 A 
ENDBRANCH  23  27
ENDBRANCH  19  23
ENDBRANCH  18  19
ENDBRANCH  10  18
TORSDOF 7
ENDMDL
MODEL 8
REMARK VINA RESULT:      -7.5     17.344     20.683
REMARK  Name = 24776581
REMARK  8 active torsions:
REMARK  status: ('A' for Active; 'I' for Inactive)
REMARK    1  A    between atoms: N_12  and  C_21
REMARK    2  A    between atoms: C_13  and  C_17
REMARK    3  A    between atoms: C_17  and  C_22
REMARK    4  A    between atoms: C_18  and  C_19
REMARK    5  A    between atoms: C_19  and  C_21
REMARK    6  A    between atoms: C_20  and  C_24
REMARK    7  A    between atoms: C_21  and  C_23
REMARK    8  A    between atoms: C_23  and  C_25
REMARK                            x       y       z     vdW  Elec       q    Type
REMARK                         _______ _______ _______ _____ _____    ______ ____
ROOT
ATOM      1  O   UNL     1      54.855  57.613  44.784  0.00  0.00    +0.000 OA
ATOM      2  N   UNL     1      56.355  58.094  43.118  0.00  0.00    +0.000 N 
ATOM      3  N   UNL     1      58.891  59.174  42.741  0.00  0.00    +0.000 N 
ATOM      4  N   UNL     1      58.567  60.954  43.960  0.00  0.00    +0.000 NA
ATOM      5  N   UNL     1      59.876  60.940  43.541  0.00  0.00    +0.000 NA
ATOM      6  C   UNL     1      56.530  59.478  43.623  0.00  0.00    +0.000 C 
ATOM      7  C   UNL     1      57.083  57.757  41.890  0.00  0.00    +0.000 C 
ATOM      8  C   UNL     1      57.974  59.884  43.476  0.00  0.00    +0.000 A 
ATOM      9  C   UNL     1      58.587  57.922  42.085  0.00  0.00    +0.000 C 
ATOM     10  C   UNL     1      55.474  57.243  43.787  0.00  0.00    +0.000 C 
ATOM     11  C   UNL     1      60.077  59.858  42.807  0.00  0.00    +0.000 A 
ENDROOT
BRANCH  11  15
ATOM     12  F   UNL     1      61.197  59.191  40.829  0.00  0.00    +0.000 F 
ATOM     13  F   UNL     1      61.865  58.312  42.697  0.00  0.00    +0.000 F 
ATOM     14  F   UNL     1      62.304  60.405  42.248  0.00  0.00    +0.000 F 
ATOM     15  C   UNL     1      61.349  59.444  42.158  0.00  0.00    +0.000 C 
ENDBRANCH  11  15
BRANCH   6  16
ATOM     16  C   UNL     1      55.636  60.491  42.875  0.00  0.00    +0.000 C 
ATOM     17  C   UNL     1      54.794  61.371  43.785  0.00  0.00    +0.000 C 
ENDBRANCH   6  16
BRANCH  10  18
ATOM     18  C   UNL     1      55.323  55.832  43.233  0.00  0.00    +0.000 C 
BRANCH  18  19
ATOM     19  C   UNL     1      55.513  54.721  44.281  0.00  0.00    +0.000 C 
BRANCH  19  20
ATOM     20  N   UNL     1      56.729  54.960  45.081  0.00  0.00    +0.000 NA
ATOM     21  H   UNL     1      56.530  54.994  46.077  0.00  0.00    +0.000 HD
ATOM     22  H   UNL     1      57.164  55.850  44.833  0.00  0.00    +0.000 HD
ENDBRANCH  19  20
BRANCH  19  23
ATOM     23  C   UNL     1      55.478  53.269  43.728  0.00  0.00    +0.000 C 
BRANCH  23  27
ATOM     24  F   UNL     1      56.017  50.436  43.552  0.00  0.00    +0.000 F 
ATOM     25  F   UNL     1      52.207  51.984  47.119  0.00  0.00    +0.000 F 
ATOM     26  F   UNL     1      52.892  49.344  46.885  0.00  0.00    +0.000 F 
ATOM     27  C   UNL     1      54.732  52.197  44.497  0.00  0.00    +0.000 A 
ATOM     28  C   UNL     1      55.063  50.837  44.402  0.00  0.00    +0.000 A 
ATOM     29  C   UNL     1      53.745  52.569  45.426  0.00  0.00    +0.000 A 
ATOM     30  C   UNL     1      53.128  51.604  46.224  0.00  0.00    +0.000 A 
ATOM     31  C   UNL     1      54.443  49.872  45.192  0.00  0.00    +0.000 A 
ATOM     32  C   UNL     1      53.477  50.265  46.107  0.00  0.00    +0.000 A 
ENDBRANCH  23  27
ENDBRANCH  19  23
ENDBRANCH  18  19
ENDBRANCH  10  18
TORSDOF 7
ENDMDL
MODEL 9
REMARK VINA RESULT:      -7.1      6.450     12.674
REMARK  Name = 24776581
REMARK  8 active torsions:
REMARK  status: ('A' for Active; 'I' for Inactive)
REMARK    1  A    between atoms: N_12  and  C_21
REMARK    2  A    between atoms: C_13  and  C_17
REMARK    3  A    between atoms: C_17  and  C_22
REMARK    4  A    between atoms: C_18  and  C_19
REMARK    5  A    between atoms: C_19  and  C_21
REMARK    6  A    between atoms: C_20  and  C_24
REMARK    7  A    between atoms: C_21  and  C_23
REMARK    8  A    between atoms: C_23  and  C_25
REMARK                            x       y       z     vdW  Elec       q    Type
REMARK                         _______ _______ _______ _____ _____    ______ ____
ROOT
ATOM      1  O   UNL     1      49.358  52.184  37.071  0.00  0.00    +0.000 OA
ATOM      2  N   UNL     1      50.615  51.223  35.412  0.00  0.00    +0.000 N 
ATOM      3  N   UNL     1      52.721  49.440  35.056  0.00  0.00    +0.000 N 
ATOM      4  N   UNL     1      54.044  50.349  36.534  0.00  0.00    +0.000 NA
ATOM      5  N   UNL     1      54.644  49.212  36.046  0.00  0.00    +0.000 NA
ATOM      6  C   UNL     1      51.876  51.594  36.100  0.00  0.00    +0.000 C 
ATOM      7  C   UNL     1      50.759  50.562  34.110  0.00  0.00    +0.000 C 
ATOM      8  C   UNL     1      52.881  50.484  35.934  0.00  0.00    +0.000 A 
ATOM      9  C   UNL     1      51.538  49.257  34.245  0.00  0.00    +0.000 C 
ATOM     10  C   UNL     1      49.401  51.581  35.999  0.00  0.00    +0.000 C 
ATOM     11  C   UNL     1      53.841  48.655  35.155  0.00  0.00    +0.000 A 
ENDROOT
BRANCH  11  15
ATOM     12  F   UNL     1      53.391  46.346  34.871  0.00  0.00    +0.000 F 
ATOM     13  F   UNL     1      55.395  47.036  34.403  0.00  0.00    +0.000 F 
ATOM     14  F   UNL     1      53.726  47.531  33.083  0.00  0.00    +0.000 F 
ATOM     15  C   UNL     1      54.090  47.408  34.385  0.00  0.00    +0.000 C 
ENDBRANCH  11  15
BRANCH   6  16
ATOM     16  C   UNL     1      52.475  52.909  35.555  0.00  0.00    +0.000 C 
ATOM     17  C   UNL     1      52.974  53.861  36.630  0.00  0.00    +0.000 C 
ENDBRANCH   6  16
BRANCH  10  18
ATOM     18  C   UNL     1      48.131  51.182  35.258  0.00  0.00    +0.000 C 
BRANCH  18  19
ATOM     19  C   UNL     1      46.978  52.192  35.397  0.00  0.00    +0.000 C 
BRANCH  19  20
ATOM     20  N   UNL     1      47.499  53.566  35.521  0.00  0.00    +0.000 NA
ATOM     21  H   UNL     1      46.935  54.134  36.148  0.00  0.00    +0.000 HD
ATOM     22  H   UNL     1      47.507  54.041  34.616  0.00  0.00    +0.000 HD
ENDBRANCH  19  20
BRANCH  19  23
ATOM     23  C   UNL     1      45.945  51.877  36.513  0.00  0.00    +0.000 C 
BRANCH  23  27
ATOM     24  F   UNL     1      44.834  52.173  33.862  0.00  0.00    +0.000 F 
ATOM     25  F   UNL     1      41.560  50.065  37.668  0.00  0.00    +0.000 F 
ATOM     26  F   UNL     1      40.686  50.339  35.088  0.00  0.00    +0.000 F 
ATOM     27  C   UNL     1      44.513  51.558  36.135  0.00  0.00    +0.000 A 
ATOM     28  C   UNL     1      44.037  51.683  34.821  0.00  0.00    +0.000 A 
ATOM     29  C   UNL     1      43.647  51.010  37.097  0.00  0.00    +0.000 A 
ATOM     30  C   UNL     1      42.360  50.605  36.739  0.00  0.00    +0.000 A 
ATOM     31  C   UNL     1      42.751  51.286  34.463  0.00  0.00    +0.000 A 
ATOM     32  C   UNL     1      41.917  50.742  35.430  0.00  0.00    +0.000 A 
ENDBRANCH  23  27
ENDBRANCH  19  23
ENDBRANCH  18  19
ENDBRANCH  10  18
TORSDOF 7
ENDMDL
