MODEL 1
REMARK VINA RESULT:      -8.7      0.000      0.000
REMARK  Name = 10160374
REMARK  7 active torsions:
REMARK  status: ('A' for Active; 'I' for Inactive)
REMARK    1  A    between atoms: N_12  and  C_18
REMARK    2  A    between atoms: C_18  and  C_19
REMARK    3  A    between atoms: C_18  and  C_21
REMARK    4  A    between atoms: C_19  and  C_20
REMARK    5  A    between atoms: C_21  and  C_23
REMARK    6  A    between atoms: C_22  and  C_24
REMARK    7  A    between atoms: C_29  and  C_30
REMARK                            x       y       z     vdW  Elec       q    Type
REMARK                         _______ _______ _______ _____ _____    ______ ____
ROOT
ATOM      1  C   UNL     1      48.598  51.611  34.557  0.00  0.00    +0.000 C 
ENDROOT
BRANCH   1   2
ATOM      2  N   UNL     1      49.845  52.297  34.160  0.00  0.00    +0.000 NA
ATOM      3  H   UNL     1      49.675  53.303  34.109  0.00  0.00    +0.000 HD
ATOM      4  H   UNL     1      50.105  52.017  33.215  0.00  0.00    +0.000 HD
ENDBRANCH   1   2
BRANCH   1   5
ATOM      5  C   UNL     1      48.986  50.386  35.396  0.00  0.00    +0.000 C 
BRANCH   5  15
ATOM      6  O   UNL     1      50.145  49.219  33.645  0.00  0.00    +0.000 OA
ATOM      7  N   UNL     1      51.246  49.402  35.635  0.00  0.00    +0.000 N 
ATOM      8  N   UNL     1      53.766  50.233  36.428  0.00  0.00    +0.000 N 
ATOM      9  N   UNL     1      54.869  48.878  35.117  0.00  0.00    +0.000 NA
ATOM     10  N   UNL     1      55.767  49.688  35.767  0.00  0.00    +0.000 NA
ATOM     11  C   UNL     1      51.406  49.925  36.994  0.00  0.00    +0.000 C 
ATOM     12  C   UNL     1      52.617  50.856  37.051  0.00  0.00    +0.000 C 
ATOM     13  C   UNL     1      52.363  48.599  35.122  0.00  0.00    +0.000 C 
ATOM     14  C   UNL     1      53.662  49.212  35.515  0.00  0.00    +0.000 A 
ATOM     15  C   UNL     1      50.157  49.618  34.809  0.00  0.00    +0.000 C 
ATOM     16  C   UNL     1      55.100  50.509  36.563  0.00  0.00    +0.000 A 
BRANCH  16  20
ATOM     17  F   UNL     1      55.348  51.351  38.764  0.00  0.00    +0.000 F 
ATOM     18  F   UNL     1      55.251  52.794  37.147  0.00  0.00    +0.000 F 
ATOM     19  F   UNL     1      57.035  51.558  37.412  0.00  0.00    +0.000 F 
ATOM     20  C   UNL     1      55.678  51.544  37.458  0.00  0.00    +0.000 C 
ENDBRANCH  16  20
ENDBRANCH   5  15
ENDBRANCH   1   5
BRANCH   1  21
ATOM     21  C   UNL     1      47.664  52.566  35.346  0.00  0.00    +0.000 C 
BRANCH  21  23
ATOM     22  F   UNL     1      45.958  52.957  33.125  0.00  0.00    +0.000 F 
ATOM     23  C   UNL     1      46.214  52.146  35.339  0.00  0.00    +0.000 A 
ATOM     24  C   UNL     1      45.432  52.359  34.204  0.00  0.00    +0.000 A 
ATOM     25  C   UNL     1      45.625  51.545  36.462  0.00  0.00    +0.000 A 
ATOM     26  C   UNL     1      44.106  51.949  34.154  0.00  0.00    +0.000 A 
ATOM     27  C   UNL     1      44.292  51.125  36.416  0.00  0.00    +0.000 A 
ATOM     28  C   UNL     1      43.524  51.316  35.260  0.00  0.00    +0.000 A 
BRANCH  28  32
ATOM     29  F   UNL     1      41.182  51.845  35.187  0.00  0.00    +0.000 F 
ATOM     30  F   UNL     1      41.844  50.085  34.100  0.00  0.00    +0.000 F 
ATOM     31  F   UNL     1      41.767  50.056  36.273  0.00  0.00    +0.000 F 
ATOM     32  C   UNL     1      42.095  50.836  35.207  0.00  0.00    +0.000 C 
ENDBRANCH  28  32
ENDBRANCH  21  23
ENDBRANCH   1  21
TORSDOF 7
ENDMDL
MODEL 2
REMARK VINA RESULT:      -8.2      6.157     12.354
REMARK  Name = 10160374
REMARK  7 active torsions:
REMARK  status: ('A' for Active; 'I' for Inactive)
REMARK    1  A    between atoms: N_12  and  C_18
REMARK    2  A    between atoms: C_18  and  C_19
REMARK    3  A    between atoms: C_18  and  C_21
REMARK    4  A    between atoms: C_19  and  C_20
REMARK    5  A    between atoms: C_21  and  C_23
REMARK    6  A    between atoms: C_22  and  C_24
REMARK    7  A    between atoms: C_29  and  C_30
REMARK                            x       y       z     vdW  Elec       q    Type
REMARK                         _______ _______ _______ _____ _____    ______ ____
ROOT
ATOM      1  C   UNL     1      43.994  51.315  36.515  0.00  0.00    +0.000 C 
ENDROOT
BRANCH   1   2
ATOM      2  N   UNL     1      43.744  51.702  37.920  0.00  0.00    +0.000 NA
ATOM      3  H   UNL     1      44.197  52.597  38.109  0.00  0.00    +0.000 HD
ATOM      4  H   UNL     1      44.192  51.032  38.545  0.00  0.00    +0.000 HD
ENDBRANCH   1   2
BRANCH   1   5
ATOM      5  C   UNL     1      42.633  51.100  35.840  0.00  0.00    +0.000 C 
BRANCH   5  15
ATOM      6  O   UNL     1      41.528  53.127  36.504  0.00  0.00    +0.000 OA
ATOM      7  N   UNL     1      40.484  51.179  37.071  0.00  0.00    +0.000 N 
ATOM      8  N   UNL     1      37.927  50.154  36.791  0.00  0.00    +0.000 N 
ATOM      9  N   UNL     1      36.912  51.824  37.766  0.00  0.00    +0.000 NA
ATOM     10  N   UNL     1      35.965  50.946  37.297  0.00  0.00    +0.000 NA
ATOM     11  C   UNL     1      40.324  49.723  37.023  0.00  0.00    +0.000 C 
ATOM     12  C   UNL     1      39.034  49.370  36.285  0.00  0.00    +0.000 C 
ATOM     13  C   UNL     1      39.431  51.917  37.778  0.00  0.00    +0.000 C 
ATOM     14  C   UNL     1      38.094  51.345  37.455  0.00  0.00    +0.000 A 
ATOM     15  C   UNL     1      41.519  51.897  36.497  0.00  0.00    +0.000 C 
ATOM     16  C   UNL     1      36.579  49.933  36.708  0.00  0.00    +0.000 A 
BRANCH  16  20
ATOM     17  F   UNL     1      36.356  48.557  34.791  0.00  0.00    +0.000 F 
ATOM     18  F   UNL     1      34.588  48.868  36.010  0.00  0.00    +0.000 F 
ATOM     19  F   UNL     1      36.216  47.602  36.737  0.00  0.00    +0.000 F 
ATOM     20  C   UNL     1      35.938  48.754  36.072  0.00  0.00    +0.000 C 
ENDBRANCH  16  20
ENDBRANCH   5  15
ENDBRANCH   1   5
BRANCH   1  21
ATOM     21  C   UNL     1      44.827  52.397  35.780  0.00  0.00    +0.000 C 
BRANCH  21  23
ATOM     22  F   UNL     1      46.076  52.987  33.313  0.00  0.00    +0.000 F 
ATOM     23  C   UNL     1      46.234  51.964  35.446  0.00  0.00    +0.000 A 
ATOM     24  C   UNL     1      46.793  52.300  34.213  0.00  0.00    +0.000 A 
ATOM     25  C   UNL     1      47.000  51.218  36.355  0.00  0.00    +0.000 A 
ATOM     26  C   UNL     1      48.097  51.948  33.893  0.00  0.00    +0.000 A 
ATOM     27  C   UNL     1      48.317  50.866  36.040  0.00  0.00    +0.000 A 
ATOM     28  C   UNL     1      48.879  51.234  34.811  0.00  0.00    +0.000 A 
BRANCH  28  32
ATOM     29  F   UNL     1      51.012  50.424  35.563  0.00  0.00    +0.000 F 
ATOM     30  F   UNL     1      50.394  49.894  33.549  0.00  0.00    +0.000 F 
ATOM     31  F   UNL     1      51.013  51.930  33.997  0.00  0.00    +0.000 F 
ATOM     32  C   UNL     1      50.308  50.875  34.489  0.00  0.00    +0.000 C 
ENDBRANCH  28  32
ENDBRANCH  21  23
ENDBRANCH   1  21
TORSDOF 7
ENDMDL
MODEL 3
REMARK VINA RESULT:      -8.2     26.060     27.452
REMARK  Name = 10160374
REMARK  7 active torsions:
REMARK  status: ('A' for Active; 'I' for Inactive)
REMARK    1  A    between atoms: N_12  and  C_18
REMARK    2  A    between atoms: C_18  and  C_19
REMARK    3  A    between atoms: C_18  and  C_21
REMARK    4  A    between atoms: C_19  and  C_20
REMARK    5  A    between atoms: C_21  and  C_23
REMARK    6  A    between atoms: C_22  and  C_24
REMARK    7  A    between atoms: C_29  and  C_30
REMARK                            x       y       z     vdW  Elec       q    Type
REMARK                         _______ _______ _______ _____ _____    ______ ____
ROOT
ATOM      1  C   UNL     1      45.813  73.419  51.264  0.00  0.00    +0.000 C 
ENDROOT
BRANCH   1   2
ATOM      2  N   UNL     1      45.020  72.915  52.405  0.00  0.00    +0.000 NA
ATOM      3  H   UNL     1      44.073  73.293  52.350  0.00  0.00    +0.000 HD
ATOM      4  H   UNL     1      45.406  73.275  53.278  0.00  0.00    +0.000 HD
ENDBRANCH   1   2
BRANCH   1   5
ATOM      5  C   UNL     1      45.626  72.439  50.097  0.00  0.00    +0.000 C 
BRANCH   5  15
ATOM      6  O   UNL     1      47.292  73.037  48.473  0.00  0.00    +0.000 OA
ATOM      7  N   UNL     1      47.619  71.065  49.573  0.00  0.00    +0.000 N 
ATOM      8  N   UNL     1      49.718  69.894  50.948  0.00  0.00    +0.000 N 
ATOM      9  N   UNL     1      51.168  70.061  49.324  0.00  0.00    +0.000 NA
ATOM     10  N   UNL     1      51.802  69.549  50.429  0.00  0.00    +0.000 NA
ATOM     11  C   UNL     1      47.302  70.083  50.613  0.00  0.00    +0.000 C 
ATOM     12  C   UNL     1      48.444  70.017  51.626  0.00  0.00    +0.000 C 
ATOM     13  C   UNL     1      48.817  70.785  48.772  0.00  0.00    +0.000 C 
ATOM     14  C   UNL     1      49.911  70.272  49.642  0.00  0.00    +0.000 A 
ATOM     15  C   UNL     1      46.903  72.218  49.305  0.00  0.00    +0.000 C 
ATOM     16  C   UNL     1      50.924  69.446  51.414  0.00  0.00    +0.000 A 
BRANCH  16  20
ATOM     17  F   UNL     1      52.487  69.039  53.148  0.00  0.00    +0.000 F 
ATOM     18  F   UNL     1      50.866  67.616  52.909  0.00  0.00    +0.000 F 
ATOM     19  F   UNL     1      50.472  69.607  53.724  0.00  0.00    +0.000 F 
ATOM     20  C   UNL     1      51.181  68.930  52.783  0.00  0.00    +0.000 C 
ENDBRANCH  16  20
ENDBRANCH   5  15
ENDBRANCH   1   5
BRANCH   1  21
ATOM     21  C   UNL     1      45.378  74.855  50.874  0.00  0.00    +0.000 C 
BRANCH  21  23
ATOM     22  F   UNL     1      45.927  75.789  48.263  0.00  0.00    +0.000 F 
ATOM     23  C   UNL     1      46.529  75.778  50.556  0.00  0.00    +0.000 A 
ATOM     24  C   UNL     1      46.735  76.210  49.246  0.00  0.00    +0.000 A 
ATOM     25  C   UNL     1      47.410  76.213  51.557  0.00  0.00    +0.000 A 
ATOM     26  C   UNL     1      47.762  77.089  48.930  0.00  0.00    +0.000 A 
ATOM     27  C   UNL     1      48.443  77.102  51.246  0.00  0.00    +0.000 A 
ATOM     28  C   UNL     1      48.624  77.555  49.932  0.00  0.00    +0.000 A 
BRANCH  28  32
ATOM     29  F   UNL     1      50.635  78.681  50.607  0.00  0.00    +0.000 F 
ATOM     30  F   UNL     1      50.433  78.168  48.506  0.00  0.00    +0.000 F 
ATOM     31  F   UNL     1      49.247  79.784  49.350  0.00  0.00    +0.000 F 
ATOM     32  C   UNL     1      49.722  78.536  49.608  0.00  0.00    +0.000 C 
ENDBRANCH  28  32
ENDBRANCH  21  23
ENDBRANCH   1  21
TORSDOF 7
ENDMDL
MODEL 4
REMARK VINA RESULT:      -8.0     20.338     21.680
REMARK  Name = 10160374
REMARK  7 active torsions:
REMARK  status: ('A' for Active; 'I' for Inactive)
REMARK    1  A    between atoms: N_12  and  C_18
REMARK    2  A    between atoms: C_18  and  C_19
REMARK    3  A    between atoms: C_18  and  C_21
REMARK    4  A    between atoms: C_19  and  C_20
REMARK    5  A    between atoms: C_21  and  C_23
REMARK    6  A    between atoms: C_22  and  C_24
REMARK    7  A    between atoms: C_29  and  C_30
REMARK                            x       y       z     vdW  Elec       q    Type
REMARK                         _______ _______ _______ _____ _____    ______ ____
ROOT
ATOM      1  C   UNL     1      53.169  70.151  37.213  0.00  0.00    +0.000 C 
ENDROOT
BRANCH   1   2
ATOM      2  N   UNL     1      53.851  69.351  36.174  0.00  0.00    +0.000 NA
ATOM      3  H   UNL     1      53.189  69.132  35.428  0.00  0.00    +0.000 HD
ATOM      4  H   UNL     1      54.130  68.450  36.563  0.00  0.00    +0.000 HD
ENDBRANCH   1   2
BRANCH   1   5
ATOM      5  C   UNL     1      54.028  71.394  37.485  0.00  0.00    +0.000 C 
BRANCH   5  15
ATOM      6  O   UNL     1      56.286  71.144  36.704  0.00  0.00    +0.000 OA
ATOM      7  N   UNL     1      55.927  70.690  38.911  0.00  0.00    +0.000 N 
ATOM      8  N   UNL     1      57.089  71.465  41.302  0.00  0.00    +0.000 N 
ATOM      9  N   UNL     1      59.119  70.868  40.765  0.00  0.00    +0.000 NA
ATOM     10  N   UNL     1      59.151  71.474  41.997  0.00  0.00    +0.000 NA
ATOM     11  C   UNL     1      55.100  70.667  40.121  0.00  0.00    +0.000 C 
ATOM     12  C   UNL     1      55.661  71.651  41.147  0.00  0.00    +0.000 C 
ATOM     13  C   UNL     1      57.329  70.293  39.086  0.00  0.00    +0.000 C 
ATOM     14  C   UNL     1      57.875  70.868  40.347  0.00  0.00    +0.000 A 
ATOM     15  C   UNL     1      55.502  71.065  37.649  0.00  0.00    +0.000 C 
ATOM     16  C   UNL     1      57.920  71.835  42.324  0.00  0.00    +0.000 A 
BRANCH  16  20
ATOM     17  F   UNL     1      57.543  71.691  44.659  0.00  0.00    +0.000 F 
ATOM     18  F   UNL     1      56.220  72.970  43.510  0.00  0.00    +0.000 F 
ATOM     19  F   UNL     1      58.289  73.574  43.875  0.00  0.00    +0.000 F 
ATOM     20  C   UNL     1      57.496  72.513  43.576  0.00  0.00    +0.000 C 
ENDBRANCH  16  20
ENDBRANCH   5  15
ENDBRANCH   1   5
BRANCH   1  21
ATOM     21  C   UNL     1      51.736  70.539  36.765  0.00  0.00    +0.000 C 
BRANCH  21  23
ATOM     22  F   UNL     1      50.944  73.225  37.161  0.00  0.00    +0.000 F 
ATOM     23  C   UNL     1      50.837  70.974  37.898  0.00  0.00    +0.000 A 
ATOM     24  C   UNL     1      50.476  72.315  38.027  0.00  0.00    +0.000 A 
ATOM     25  C   UNL     1      50.355  70.051  38.838  0.00  0.00    +0.000 A 
ATOM     26  C   UNL     1      49.621  72.738  39.035  0.00  0.00    +0.000 A 
ATOM     27  C   UNL     1      49.489  70.470  39.853  0.00  0.00    +0.000 A 
ATOM     28  C   UNL     1      49.108  71.814  39.956  0.00  0.00    +0.000 A 
BRANCH  28  32
ATOM     29  F   UNL     1      47.003  71.526  41.076  0.00  0.00    +0.000 F 
ATOM     30  F   UNL     1      48.698  72.156  42.279  0.00  0.00    +0.000 F 
ATOM     31  F   UNL     1      47.768  73.553  40.895  0.00  0.00    +0.000 F 
ATOM     32  C   UNL     1      48.152  72.255  41.036  0.00  0.00    +0.000 C 
ENDBRANCH  28  32
ENDBRANCH  21  23
ENDBRANCH   1  21
TORSDOF 7
ENDMDL
MODEL 5
REMARK VINA RESULT:      -7.8      5.630     11.732
REMARK  Name = 10160374
REMARK  7 active torsions:
REMARK  status: ('A' for Active; 'I' for Inactive)
REMARK    1  A    between atoms: N_12  and  C_18
REMARK    2  A    between atoms: C_18  and  C_19
REMARK    3  A    between atoms: C_18  and  C_21
REMARK    4  A    between atoms: C_19  and  C_20
REMARK    5  A    between atoms: C_21  and  C_23
REMARK    6  A    between atoms: C_22  and  C_24
REMARK    7  A    between atoms: C_29  and  C_30
REMARK                            x       y       z     vdW  Elec       q    Type
REMARK                         _______ _______ _______ _____ _____    ______ ____
ROOT
ATOM      1  C   UNL     1      45.373  50.835  37.112  0.00  0.00    +0.000 C 
ENDROOT
BRANCH   1   2
ATOM      2  N   UNL     1      45.012  50.794  38.545  0.00  0.00    +0.000 NA
ATOM      3  H   UNL     1      45.488  51.554  39.034  0.00  0.00    +0.000 HD
ATOM      4  H   UNL     1      45.368  49.935  38.964  0.00  0.00    +0.000 HD
ENDBRANCH   1   2
BRANCH   1   5
ATOM      5  C   UNL     1      44.111  51.211  36.324  0.00  0.00    +0.000 C 
BRANCH   5  15
ATOM      6  O   UNL     1      43.220  53.123  37.473  0.00  0.00    +0.000 OA
ATOM      7  N   UNL     1      41.974  51.214  37.577  0.00  0.00    +0.000 N 
ATOM      8  N   UNL     1      39.326  50.556  37.108  0.00  0.00    +0.000 N 
ATOM      9  N   UNL     1      38.484  52.039  38.472  0.00  0.00    +0.000 NA
ATOM     10  N   UNL     1      37.454  51.402  37.826  0.00  0.00    +0.000 NA
ATOM     11  C   UNL     1      41.663  49.836  37.186  0.00  0.00    +0.000 C 
ATOM     12  C   UNL     1      40.347  49.806  36.409  0.00  0.00    +0.000 C 
ATOM     13  C   UNL     1      40.999  51.865  38.460  0.00  0.00    +0.000 C 
ATOM     14  C   UNL     1      39.612  51.529  38.034  0.00  0.00    +0.000 A 
ATOM     15  C   UNL     1      43.082  51.938  37.172  0.00  0.00    +0.000 C 
ATOM     16  C   UNL     1      37.962  50.502  37.000  0.00  0.00    +0.000 A 
BRANCH  16  20
ATOM     17  F   UNL     1      35.862  49.789  36.165  0.00  0.00    +0.000 F 
ATOM     18  F   UNL     1      37.395  48.278  36.436  0.00  0.00    +0.000 F 
ATOM     19  F   UNL     1      37.556  49.728  34.808  0.00  0.00    +0.000 F 
ATOM     20  C   UNL     1      37.206  49.582  36.112  0.00  0.00    +0.000 C 
ENDBRANCH  16  20
ENDBRANCH   5  15
ENDBRANCH   1   5
BRANCH   1  21
ATOM     21  C   UNL     1      46.523  51.843  36.856  0.00  0.00    +0.000 C 
BRANCH  21  23
ATOM     22  F   UNL     1      48.163  50.037  38.285  0.00  0.00    +0.000 F 
ATOM     23  C   UNL     1      47.765  51.218  36.268  0.00  0.00    +0.000 A 
ATOM     24  C   UNL     1      48.521  50.324  37.026  0.00  0.00    +0.000 A 
ATOM     25  C   UNL     1      48.184  51.522  34.964  0.00  0.00    +0.000 A 
ATOM     26  C   UNL     1      49.646  49.704  36.499  0.00  0.00    +0.000 A 
ATOM     27  C   UNL     1      49.312  50.896  34.426  0.00  0.00    +0.000 A 
ATOM     28  C   UNL     1      50.049  49.977  35.185  0.00  0.00    +0.000 A 
BRANCH  28  32
ATOM     29  F   UNL     1      50.940  48.442  33.565  0.00  0.00    +0.000 F 
ATOM     30  F   UNL     1      52.154  50.167  34.083  0.00  0.00    +0.000 F 
ATOM     31  F   UNL     1      51.924  48.534  35.501  0.00  0.00    +0.000 F 
ATOM     32  C   UNL     1      51.249  49.285  34.589  0.00  0.00    +0.000 C 
ENDBRANCH  28  32
ENDBRANCH  21  23
ENDBRANCH   1  21
TORSDOF 7
ENDMDL
MODEL 6
REMARK VINA RESULT:      -7.5      3.109      4.669
REMARK  Name = 10160374
REMARK  7 active torsions:
REMARK  status: ('A' for Active; 'I' for Inactive)
REMARK    1  A    between atoms: N_12  and  C_18
REMARK    2  A    between atoms: C_18  and  C_19
REMARK    3  A    between atoms: C_18  and  C_21
REMARK    4  A    between atoms: C_19  and  C_20
REMARK    5  A    between atoms: C_21  and  C_23
REMARK    6  A    between atoms: C_22  and  C_24
REMARK    7  A    between atoms: C_29  and  C_30
REMARK                            x       y       z     vdW  Elec       q    Type
REMARK                         _______ _______ _______ _____ _____    ______ ____
ROOT
ATOM      1  C   UNL     1      44.692  52.023  36.190  0.00  0.00    +0.000 C 
ENDROOT
BRANCH   1   2
ATOM      2  N   UNL     1      44.966  53.233  36.993  0.00  0.00    +0.000 NA
ATOM      3  H   UNL     1      44.620  53.092  37.943  0.00  0.00    +0.000 HD
ATOM      4  H   UNL     1      44.430  54.018  36.623  0.00  0.00    +0.000 HD
ENDBRANCH   1   2
BRANCH   1   5
ATOM      5  C   UNL     1      46.027  51.535  35.610  0.00  0.00    +0.000 C 
BRANCH   5  15
ATOM      6  O   UNL     1      46.956  51.450  37.824  0.00  0.00    +0.000 OA
ATOM      7  N   UNL     1      48.437  51.788  36.122  0.00  0.00    +0.000 N 
ATOM      8  N   UNL     1      50.830  50.642  35.329  0.00  0.00    +0.000 N 
ATOM      9  N   UNL     1      51.852  50.919  37.238  0.00  0.00    +0.000 NA
ATOM     10  N   UNL     1      52.681  50.224  36.393  0.00  0.00    +0.000 NA
ATOM     11  C   UNL     1      48.802  51.860  34.705  0.00  0.00    +0.000 C 
ATOM     12  C   UNL     1      49.757  50.718  34.359  0.00  0.00    +0.000 C 
ATOM     13  C   UNL     1      49.545  51.922  37.076  0.00  0.00    +0.000 C 
ATOM     14  C   UNL     1      50.735  51.166  36.594  0.00  0.00    +0.000 A 
ATOM     15  C   UNL     1      47.161  51.590  36.619  0.00  0.00    +0.000 C 
ATOM     16  C   UNL     1      52.063  50.056  35.234  0.00  0.00    +0.000 A 
BRANCH  16  20
ATOM     17  F   UNL     1      51.857  48.283  33.676  0.00  0.00    +0.000 F 
ATOM     18  F   UNL     1      53.863  48.910  34.217  0.00  0.00    +0.000 F 
ATOM     19  F   UNL     1      52.619  50.181  32.945  0.00  0.00    +0.000 F 
ATOM     20  C   UNL     1      52.599  49.368  34.032  0.00  0.00    +0.000 C 
ENDBRANCH  16  20
ENDBRANCH   5  15
ENDBRANCH   1   5
BRANCH   1  21
ATOM     21  C   UNL     1      44.012  50.926  37.050  0.00  0.00    +0.000 C 
BRANCH  21  23
ATOM     22  F   UNL     1      42.367  49.117  38.471  0.00  0.00    +0.000 F 
ATOM     23  C   UNL     1      42.558  50.699  36.714  0.00  0.00    +0.000 A 
ATOM     24  C   UNL     1      41.801  49.800  37.466  0.00  0.00    +0.000 A 
ATOM     25  C   UNL     1      41.943  51.376  35.650  0.00  0.00    +0.000 A 
ATOM     26  C   UNL     1      40.452  49.599  37.206  0.00  0.00    +0.000 A 
ATOM     27  C   UNL     1      40.583  51.182  35.387  0.00  0.00    +0.000 A 
ATOM     28  C   UNL     1      39.824  50.299  36.166  0.00  0.00    +0.000 A 
BRANCH  28  32
ATOM     29  F   UNL     1      37.888  48.878  36.220  0.00  0.00    +0.000 F 
ATOM     30  F   UNL     1      37.585  50.996  36.595  0.00  0.00    +0.000 F 
ATOM     31  F   UNL     1      38.037  50.301  34.584  0.00  0.00    +0.000 F 
ATOM     32  C   UNL     1      38.352  50.116  35.895  0.00  0.00    +0.000 C 
ENDBRANCH  28  32
ENDBRANCH  21  23
ENDBRANCH   1  21
TORSDOF 7
ENDMDL
MODEL 7
REMARK VINA RESULT:      -7.5     20.281     21.690
REMARK  Name = 10160374
REMARK  7 active torsions:
REMARK  status: ('A' for Active; 'I' for Inactive)
REMARK    1  A    between atoms: N_12  and  C_18
REMARK    2  A    between atoms: C_18  and  C_19
REMARK    3  A    between atoms: C_18  and  C_21
REMARK    4  A    between atoms: C_19  and  C_20
REMARK    5  A    between atoms: C_21  and  C_23
REMARK    6  A    between atoms: C_22  and  C_24
REMARK    7  A    between atoms: C_29  and  C_30
REMARK                            x       y       z     vdW  Elec       q    Type
REMARK                         _______ _______ _______ _____ _____    ______ ____
ROOT
ATOM      1  C   UNL     1      52.013  69.512  37.724  0.00  0.00    +0.000 C 
ENDROOT
BRANCH   1   2
ATOM      2  N   UNL     1      52.111  69.369  36.257  0.00  0.00    +0.000 NA
ATOM      3  H   UNL     1      52.089  70.295  35.826  0.00  0.00    +0.000 HD
ATOM      4  H   UNL     1      51.287  68.885  35.902  0.00  0.00    +0.000 HD
ENDBRANCH   1   2
BRANCH   1   5
ATOM      5  C   UNL     1      52.536  70.906  38.095  0.00  0.00    +0.000 C 
BRANCH   5  15
ATOM      6  O   UNL     1      54.281  71.690  36.641  0.00  0.00    +0.000 OA
ATOM      7  N   UNL     1      54.956  70.653  38.559  0.00  0.00    +0.000 N 
ATOM      8  N   UNL     1      56.719  71.247  40.610  0.00  0.00    +0.000 N 
ATOM      9  N   UNL     1      58.452  71.578  39.323  0.00  0.00    +0.000 NA
ATOM     10  N   UNL     1      58.807  71.860  40.619  0.00  0.00    +0.000 NA
ATOM     11  C   UNL     1      54.712  70.057  39.875  0.00  0.00    +0.000 C 
ATOM     12  C   UNL     1      55.352  70.922  40.960  0.00  0.00    +0.000 C 
ATOM     13  C   UNL     1      56.363  70.774  38.162  0.00  0.00    +0.000 C 
ATOM     14  C   UNL     1      57.191  71.212  39.320  0.00  0.00    +0.000 A 
ATOM     15  C   UNL     1      53.984  71.117  37.689  0.00  0.00    +0.000 C 
ATOM     16  C   UNL     1      57.758  71.659  41.400  0.00  0.00    +0.000 A 
BRANCH  16  20
ATOM     17  F   UNL     1      58.248  73.010  43.284  0.00  0.00    +0.000 F 
ATOM     18  F   UNL     1      58.371  70.859  43.538  0.00  0.00    +0.000 F 
ATOM     19  F   UNL     1      56.424  71.833  43.338  0.00  0.00    +0.000 F 
ATOM     20  C   UNL     1      57.700  71.834  42.874  0.00  0.00    +0.000 C 
ENDBRANCH  16  20
ENDBRANCH   5  15
ENDBRANCH   1   5
BRANCH   1  21
ATOM     21  C   UNL     1      50.553  69.307  38.207  0.00  0.00    +0.000 C 
BRANCH  21  23
ATOM     22  F   UNL     1      50.810  70.023  40.930  0.00  0.00    +0.000 F 
ATOM     23  C   UNL     1      49.923  70.547  38.794  0.00  0.00    +0.000 A 
ATOM     24  C   UNL     1      50.101  70.846  40.145  0.00  0.00    +0.000 A 
ATOM     25  C   UNL     1      49.151  71.413  38.006  0.00  0.00    +0.000 A 
ATOM     26  C   UNL     1      49.567  71.999  40.705  0.00  0.00    +0.000 A 
ATOM     27  C   UNL     1      48.615  72.579  38.563  0.00  0.00    +0.000 A 
ATOM     28  C   UNL     1      48.825  72.886  39.914  0.00  0.00    +0.000 A 
BRANCH  28  32
ATOM     29  F   UNL     1      47.608  73.972  41.678  0.00  0.00    +0.000 F 
ATOM     30  F   UNL     1      49.239  75.075  40.761  0.00  0.00    +0.000 F 
ATOM     31  F   UNL     1      47.382  74.773  39.670  0.00  0.00    +0.000 F 
ATOM     32  C   UNL     1      48.267  74.158  40.501  0.00  0.00    +0.000 C 
ENDBRANCH  28  32
ENDBRANCH  21  23
ENDBRANCH   1  21
TORSDOF 7
ENDMDL
MODEL 8
REMARK VINA RESULT:      -7.4      7.747      9.441
REMARK  Name = 10160374
REMARK  7 active torsions:
REMARK  status: ('A' for Active; 'I' for Inactive)
REMARK    1  A    between atoms: N_12  and  C_18
REMARK    2  A    between atoms: C_18  and  C_19
REMARK    3  A    between atoms: C_18  and  C_21
REMARK    4  A    between atoms: C_19  and  C_20
REMARK    5  A    between atoms: C_21  and  C_23
REMARK    6  A    between atoms: C_22  and  C_24
REMARK    7  A    between atoms: C_29  and  C_30
REMARK                            x       y       z     vdW  Elec       q    Type
REMARK                         _______ _______ _______ _____ _____    ______ ____
ROOT
ATOM      1  C   UNL     1      42.370  49.217  40.474  0.00  0.00    +0.000 C 
ENDROOT
BRANCH   1   2
ATOM      2  N   UNL     1      41.794  49.905  41.648  0.00  0.00    +0.000 NA
ATOM      3  H   UNL     1      42.547  50.326  42.195  0.00  0.00    +0.000 HD
ATOM      4  H   UNL     1      41.359  49.221  42.268  0.00  0.00    +0.000 HD
ENDBRANCH   1   2
BRANCH   1   5
ATOM      5  C   UNL     1      42.636  47.759  40.871  0.00  0.00    +0.000 C 
BRANCH   5  15
ATOM      6  O   UNL     1      44.900  47.664  40.071  0.00  0.00    +0.000 OA
ATOM      7  N   UNL     1      44.550  46.916  42.198  0.00  0.00    +0.000 N 
ATOM      8  N   UNL     1      45.694  47.397  44.674  0.00  0.00    +0.000 N 
ATOM      9  N   UNL     1      47.737  46.920  44.071  0.00  0.00    +0.000 NA
ATOM     10  N   UNL     1      47.754  47.360  45.371  0.00  0.00    +0.000 NA
ATOM     11  C   UNL     1      43.724  46.717  43.392  0.00  0.00    +0.000 C 
ATOM     12  C   UNL     1      44.262  47.570  44.540  0.00  0.00    +0.000 C 
ATOM     13  C   UNL     1      45.961  46.531  42.324  0.00  0.00    +0.000 C 
ATOM     14  C   UNL     1      46.493  46.947  43.652  0.00  0.00    +0.000 A 
ATOM     15  C   UNL     1      44.117  47.444  40.995  0.00  0.00    +0.000 C 
ATOM     16  C   UNL     1      46.516  47.648  45.739  0.00  0.00    +0.000 A 
BRANCH  16  20
ATOM     17  F   UNL     1      45.553  49.402  47.009  0.00  0.00    +0.000 F 
ATOM     18  F   UNL     1      47.094  48.209  47.961  0.00  0.00    +0.000 F 
ATOM     19  F   UNL     1      45.109  47.363  47.611  0.00  0.00    +0.000 F 
ATOM     20  C   UNL     1      46.076  48.147  47.067  0.00  0.00    +0.000 C 
ENDBRANCH  16  20
ENDBRANCH   5  15
ENDBRANCH   1   5
BRANCH   1  21
ATOM     21  C   UNL     1      41.418  49.308  39.253  0.00  0.00    +0.000 C 
BRANCH  21  23
ATOM     22  F   UNL     1      40.170  49.326  36.716  0.00  0.00    +0.000 F 
ATOM     23  C   UNL     1      42.047  49.932  38.031  0.00  0.00    +0.000 A 
ATOM     24  C   UNL     1      41.369  49.915  36.812  0.00  0.00    +0.000 A 
ATOM     25  C   UNL     1      43.315  50.530  38.091  0.00  0.00    +0.000 A 
ATOM     26  C   UNL     1      41.906  50.514  35.680  0.00  0.00    +0.000 A 
ATOM     27  C   UNL     1      43.858  51.140  36.956  0.00  0.00    +0.000 A 
ATOM     28  C   UNL     1      43.156  51.145  35.744  0.00  0.00    +0.000 A 
BRANCH  28  32
ATOM     29  F   UNL     1      44.979  51.386  34.198  0.00  0.00    +0.000 F 
ATOM     30  F   UNL     1      42.967  51.647  33.421  0.00  0.00    +0.000 F 
ATOM     31  F   UNL     1      43.848  53.174  34.694  0.00  0.00    +0.000 F 
ATOM     32  C   UNL     1      43.735  51.828  34.530  0.00  0.00    +0.000 C 
ENDBRANCH  28  32
ENDBRANCH  21  23
ENDBRANCH   1  21
TORSDOF 7
ENDMDL
MODEL 9
REMARK VINA RESULT:      -7.4     11.318     14.158
REMARK  Name = 10160374
REMARK  7 active torsions:
REMARK  status: ('A' for Active; 'I' for Inactive)
REMARK    1  A    between atoms: N_12  and  C_18
REMARK    2  A    between atoms: C_18  and  C_19
REMARK    3  A    between atoms: C_18  and  C_21
REMARK    4  A    between atoms: C_19  and  C_20
REMARK    5  A    between atoms: C_21  and  C_23
REMARK    6  A    between atoms: C_22  and  C_24
REMARK    7  A    between atoms: C_29  and  C_30
REMARK                            x       y       z     vdW  Elec       q    Type
REMARK                         _______ _______ _______ _____ _____    ______ ____
ROOT
ATOM      1  C   UNL     1      37.939  48.991  46.190  0.00  0.00    +0.000 C 
ENDROOT
BRANCH   1   2
ATOM      2  N   UNL     1      38.338  48.505  47.527  0.00  0.00    +0.000 NA
ATOM      3  H   UNL     1      39.140  49.044  47.856  0.00  0.00    +0.000 HD
ATOM      4  H   UNL     1      38.668  47.542  47.458  0.00  0.00    +0.000 HD
ENDBRANCH   1   2
BRANCH   1   5
ATOM      5  C   UNL     1      38.512  48.020  45.149  0.00  0.00    +0.000 C 
BRANCH   5  15
ATOM      6  O   UNL     1      40.018  46.639  46.413  0.00  0.00    +0.000 OA
ATOM      7  N   UNL     1      40.969  47.988  44.838  0.00  0.00    +0.000 N 
ATOM      8  N   UNL     1      42.765  47.635  42.759  0.00  0.00    +0.000 N 
ATOM      9  N   UNL     1      44.336  46.730  43.975  0.00  0.00    +0.000 NA
ATOM     10  N   UNL     1      44.735  46.717  42.661  0.00  0.00    +0.000 NA
ATOM     11  C   UNL     1      40.908  48.917  43.706  0.00  0.00    +0.000 C 
ATOM     12  C   UNL     1      41.488  48.250  42.459  0.00  0.00    +0.000 C 
ATOM     13  C   UNL     1      42.313  47.551  45.235  0.00  0.00    +0.000 C 
ATOM     14  C   UNL     1      43.146  47.281  44.030  0.00  0.00    +0.000 A 
ATOM     15  C   UNL     1      39.882  47.488  45.533  0.00  0.00    +0.000 C 
ATOM     16  C   UNL     1      43.784  47.267  41.923  0.00  0.00    +0.000 A 
BRANCH  16  20
ATOM     17  F   UNL     1      43.026  46.566  39.790  0.00  0.00    +0.000 F 
ATOM     18  F   UNL     1      45.049  47.338  39.928  0.00  0.00    +0.000 F 
ATOM     19  F   UNL     1      43.341  48.693  40.096  0.00  0.00    +0.000 F 
ATOM     20  C   UNL     1      43.804  47.466  40.451  0.00  0.00    +0.000 C 
ENDBRANCH  16  20
ENDBRANCH   5  15
ENDBRANCH   1   5
BRANCH   1  21
ATOM     21  C   UNL     1      36.396  49.100  46.075  0.00  0.00    +0.000 C 
BRANCH  21  23
ATOM     22  F   UNL     1      36.320  50.561  43.655  0.00  0.00    +0.000 F 
ATOM     23  C   UNL     1      35.888  50.519  45.986  0.00  0.00    +0.000 A 
ATOM     24  C   UNL     1      35.868  51.177  44.756  0.00  0.00    +0.000 A 
ATOM     25  C   UNL     1      35.436  51.202  47.125  0.00  0.00    +0.000 A 
ATOM     26  C   UNL     1      35.371  52.468  44.637  0.00  0.00    +0.000 A 
ATOM     27  C   UNL     1      34.929  52.500  47.010  0.00  0.00    +0.000 A 
ATOM     28  C   UNL     1      34.884  53.141  45.766  0.00  0.00    +0.000 A 
BRANCH  28  32
ATOM     29  F   UNL     1      33.579  54.721  44.512  0.00  0.00    +0.000 F 
ATOM     30  F   UNL     1      33.482  54.839  46.679  0.00  0.00    +0.000 F 
ATOM     31  F   UNL     1      35.274  55.493  45.634  0.00  0.00    +0.000 F 
ATOM     32  C   UNL     1      34.311  54.531  45.644  0.00  0.00    +0.000 C 
ENDBRANCH  28  32
ENDBRANCH  21  23
ENDBRANCH   1  21
TORSDOF 7
ENDMDL
