MODEL 1
REMARK VINA RESULT:      -8.3      0.000      0.000
REMARK  Name = 20628271
REMARK  6 active torsions:
REMARK  status: ('A' for Active; 'I' for Inactive)
REMARK    1  A    between atoms: N_11  and  C_18
REMARK    2  A    between atoms: C_17  and  C_18
REMARK    3  A    between atoms: C_17  and  C_19
REMARK    4  A    between atoms: C_18  and  C_20
REMARK    5  A    between atoms: C_20  and  C_22
REMARK    6  A    between atoms: C_21  and  C_23
REMARK                            x       y       z     vdW  Elec       q    Type
REMARK                         _______ _______ _______ _____ _____    ______ ____
ROOT
ATOM      1  C   UNL     1      49.170  50.176  35.300  0.00  0.00    +0.000 C 
ENDROOT
BRANCH   1  11
ATOM      2  O   UNL     1      50.313  48.956  33.605  0.00  0.00    +0.000 OA
ATOM      3  N   UNL     1      51.444  49.146  35.585  0.00  0.00    +0.000 N 
ATOM      4  N   UNL     1      53.887  50.026  36.521  0.00  0.00    +0.000 N 
ATOM      5  N   UNL     1      55.110  48.835  35.164  0.00  0.00    +0.000 NA
ATOM      6  N   UNL     1      55.932  49.693  35.858  0.00  0.00    +0.000 NA
ATOM      7  C   UNL     1      51.548  49.497  37.002  0.00  0.00    +0.000 C 
ATOM      8  C   UNL     1      52.697  50.484  37.205  0.00  0.00    +0.000 C 
ATOM      9  C   UNL     1      52.610  48.435  35.037  0.00  0.00    +0.000 C 
ATOM     10  C   UNL     1      53.871  49.069  35.537  0.00  0.00    +0.000 A 
ATOM     11  C   UNL     1      50.346  49.364  34.768  0.00  0.00    +0.000 C 
ATOM     12  C   UNL     1      55.185  50.447  36.649  0.00  0.00    +0.000 A 
BRANCH  12  16
ATOM     13  F   UNL     1      56.992  51.718  37.502  0.00  0.00    +0.000 F 
ATOM     14  F   UNL     1      55.133  52.770  37.101  0.00  0.00    +0.000 F 
ATOM     15  F   UNL     1      55.284  51.408  38.804  0.00  0.00    +0.000 F 
ATOM     16  C   UNL     1      55.636  51.575  37.504  0.00  0.00    +0.000 C 
ENDBRANCH  12  16
ENDBRANCH   1  11
BRANCH   1  17
ATOM     17  C   UNL     1      48.902  51.504  34.571  0.00  0.00    +0.000 C 
BRANCH  17  18
ATOM     18  N   UNL     1      50.150  52.156  34.139  0.00  0.00    +0.000 NA
ATOM     19  H   UNL     1      49.990  52.626  33.248  0.00  0.00    +0.000 HD
ATOM     20  H   UNL     1      50.380  52.908  34.792  0.00  0.00    +0.000 HD
ENDBRANCH  17  18
BRANCH  17  21
ATOM     21  C   UNL     1      47.999  52.450  35.401  0.00  0.00    +0.000 C 
BRANCH  21  25
ATOM     22 BR   UNL     1      41.981  50.900  35.192  0.00  0.00    +0.000 Br
ATOM     23  F   UNL     1      46.262  53.076  33.217  0.00  0.00    +0.000 F 
ATOM     24  F   UNL     1      44.043  50.427  37.430  0.00  0.00    +0.000 F 
ATOM     25  C   UNL     1      46.522  52.109  35.368  0.00  0.00    +0.000 A 
ATOM     26  C   UNL     1      45.725  52.428  34.261  0.00  0.00    +0.000 A 
ATOM     27  C   UNL     1      45.927  51.432  36.441  0.00  0.00    +0.000 A 
ATOM     28  C   UNL     1      44.578  51.081  36.389  0.00  0.00    +0.000 A 
ATOM     29  C   UNL     1      44.375  52.084  34.205  0.00  0.00    +0.000 A 
ATOM     30  C   UNL     1      43.803  51.400  35.275  0.00  0.00    +0.000 A 
ENDBRANCH  21  25
ENDBRANCH  17  21
ENDBRANCH   1  17
TORSDOF 6
ENDMDL
MODEL 2
REMARK VINA RESULT:      -7.8     13.281     15.468
REMARK  Name = 20628271
REMARK  6 active torsions:
REMARK  status: ('A' for Active; 'I' for Inactive)
REMARK    1  A    between atoms: N_11  and  C_18
REMARK    2  A    between atoms: C_17  and  C_18
REMARK    3  A    between atoms: C_17  and  C_19
REMARK    4  A    between atoms: C_18  and  C_20
REMARK    5  A    between atoms: C_20  and  C_22
REMARK    6  A    between atoms: C_21  and  C_23
REMARK                            x       y       z     vdW  Elec       q    Type
REMARK                         _______ _______ _______ _____ _____    ______ ____
ROOT
ATOM      1  C   UNL     1      38.324  50.919  41.544  0.00  0.00    +0.000 C 
ENDROOT
BRANCH   1  11
ATOM      2  O   UNL     1      40.223  51.151  40.126  0.00  0.00    +0.000 OA
ATOM      3  N   UNL     1      38.202  51.286  39.061  0.00  0.00    +0.000 N 
ATOM      4  N   UNL     1      36.857  50.087  36.970  0.00  0.00    +0.000 N 
ATOM      5  N   UNL     1      38.421  50.378  35.478  0.00  0.00    +0.000 NA
ATOM      6  N   UNL     1      37.433  49.588  34.933  0.00  0.00    +0.000 NA
ATOM      7  C   UNL     1      36.743  51.391  39.036  0.00  0.00    +0.000 C 
ATOM      8  C   UNL     1      36.157  50.234  38.228  0.00  0.00    +0.000 C 
ATOM      9  C   UNL     1      38.854  51.418  37.748  0.00  0.00    +0.000 C 
ATOM     10  C   UNL     1      38.088  50.642  36.721  0.00  0.00    +0.000 A 
ATOM     11  C   UNL     1      38.991  51.144  40.191  0.00  0.00    +0.000 C 
ATOM     12  C   UNL     1      36.507  49.375  35.853  0.00  0.00    +0.000 A 
BRANCH  12  16
ATOM     13  F   UNL     1      35.275  47.822  34.556  0.00  0.00    +0.000 F 
ATOM     14  F   UNL     1      35.262  47.554  36.713  0.00  0.00    +0.000 F 
ATOM     15  F   UNL     1      34.152  49.201  35.799  0.00  0.00    +0.000 F 
ATOM     16  C   UNL     1      35.312  48.498  35.739  0.00  0.00    +0.000 C 
ENDBRANCH  12  16
ENDBRANCH   1  11
BRANCH   1  17
ATOM     17  C   UNL     1      38.387  52.111  42.516  0.00  0.00    +0.000 C 
BRANCH  17  18
ATOM     18  N   UNL     1      39.151  53.238  41.955  0.00  0.00    +0.000 NA
ATOM     19  H   UNL     1      40.062  52.902  41.644  0.00  0.00    +0.000 HD
ATOM     20  H   UNL     1      38.691  53.567  41.104  0.00  0.00    +0.000 HD
ENDBRANCH  17  18
BRANCH  17  21
ATOM     21  C   UNL     1      38.899  51.690  43.916  0.00  0.00    +0.000 C 
BRANCH  21  25
ATOM     22 BR   UNL     1      35.734  46.936  46.373  0.00  0.00    +0.000 Br
ATOM     23  F   UNL     1      36.113  51.784  44.553  0.00  0.00    +0.000 F 
ATOM     24  F   UNL     1      38.726  47.134  45.668  0.00  0.00    +0.000 F 
ATOM     25  C   UNL     1      38.137  50.546  44.554  0.00  0.00    +0.000 A 
ATOM     26  C   UNL     1      36.766  50.646  44.827  0.00  0.00    +0.000 A 
ATOM     27  C   UNL     1      38.787  49.340  44.854  0.00  0.00    +0.000 A 
ATOM     28  C   UNL     1      38.073  48.274  45.400  0.00  0.00    +0.000 A 
ATOM     29  C   UNL     1      36.049  49.585  45.378  0.00  0.00    +0.000 A 
ATOM     30  C   UNL     1      36.709  48.390  45.658  0.00  0.00    +0.000 A 
ENDBRANCH  21  25
ENDBRANCH  17  21
ENDBRANCH   1  17
TORSDOF 6
ENDMDL
MODEL 3
REMARK VINA RESULT:      -7.8     20.401     21.618
REMARK  Name = 20628271
REMARK  6 active torsions:
REMARK  status: ('A' for Active; 'I' for Inactive)
REMARK    1  A    between atoms: N_11  and  C_18
REMARK    2  A    between atoms: C_17  and  C_18
REMARK    3  A    between atoms: C_17  and  C_19
REMARK    4  A    between atoms: C_18  and  C_20
REMARK    5  A    between atoms: C_20  and  C_22
REMARK    6  A    between atoms: C_21  and  C_23
REMARK                            x       y       z     vdW  Elec       q    Type
REMARK                         _______ _______ _______ _____ _____    ______ ____
ROOT
ATOM      1  C   UNL     1      53.482  71.293  37.843  0.00  0.00    +0.000 C 
ENDROOT
BRANCH   1  11
ATOM      2  O   UNL     1      55.483  71.725  36.628  0.00  0.00    +0.000 OA
ATOM      3  N   UNL     1      55.795  70.871  38.728  0.00  0.00    +0.000 N 
ATOM      4  N   UNL     1      57.142  71.490  41.057  0.00  0.00    +0.000 N 
ATOM      5  N   UNL     1      59.104  71.747  40.142  0.00  0.00    +0.000 NA
ATOM      6  N   UNL     1      59.180  72.131  41.461  0.00  0.00    +0.000 NA
ATOM      7  C   UNL     1      55.328  70.259  39.973  0.00  0.00    +0.000 C 
ATOM      8  C   UNL     1      55.746  71.124  41.161  0.00  0.00    +0.000 C 
ATOM      9  C   UNL     1      57.258  70.959  38.594  0.00  0.00    +0.000 C 
ATOM     10  C   UNL     1      57.861  71.401  39.891  0.00  0.00    +0.000 A 
ATOM     11  C   UNL     1      54.998  71.298  37.679  0.00  0.00    +0.000 C 
ATOM     12  C   UNL     1      57.980  72.017  42.005  0.00  0.00    +0.000 A 
BRANCH  12  16
ATOM     13  F   UNL     1      56.298  72.895  43.423  0.00  0.00    +0.000 F 
ATOM     14  F   UNL     1      57.616  71.381  44.255  0.00  0.00    +0.000 F 
ATOM     15  F   UNL     1      58.358  73.402  43.880  0.00  0.00    +0.000 F 
ATOM     16  C   UNL     1      57.573  72.415  43.378  0.00  0.00    +0.000 C 
ENDBRANCH  12  16
ENDBRANCH   1  11
BRANCH   1  17
ATOM     17  C   UNL     1      52.772  70.013  37.369  0.00  0.00    +0.000 C 
BRANCH  17  18
ATOM     18  N   UNL     1      53.516  69.337  36.293  0.00  0.00    +0.000 NA
ATOM     19  H   UNL     1      53.076  68.438  36.096  0.00  0.00    +0.000 HD
ATOM     20  H   UNL     1      53.415  69.871  35.427  0.00  0.00    +0.000 HD
ENDBRANCH  17  18
BRANCH  17  21
ATOM     21  C   UNL     1      51.294  70.276  36.988  0.00  0.00    +0.000 C 
BRANCH  21  25
ATOM     22 BR   UNL     1      48.064  73.137  41.465  0.00  0.00    +0.000 Br
ATOM     23  F   UNL     1      50.858  69.181  39.593  0.00  0.00    +0.000 F 
ATOM     24  F   UNL     1      48.616  74.042  38.573  0.00  0.00    +0.000 F 
ATOM     25  C   UNL     1      50.471  70.955  38.065  0.00  0.00    +0.000 A 
ATOM     26  C   UNL     1      50.307  70.374  39.330  0.00  0.00    +0.000 A 
ATOM     27  C   UNL     1      49.881  72.203  37.827  0.00  0.00    +0.000 A 
ATOM     28  C   UNL     1      49.161  72.845  38.835  0.00  0.00    +0.000 A 
ATOM     29  C   UNL     1      49.585  71.009  40.340  0.00  0.00    +0.000 A 
ATOM     30  C   UNL     1      49.016  72.256  40.090  0.00  0.00    +0.000 A 
ENDBRANCH  21  25
ENDBRANCH  17  21
ENDBRANCH   1  17
TORSDOF 6
ENDMDL
MODEL 4
REMARK VINA RESULT:      -7.7     26.366     27.478
REMARK  Name = 20628271
REMARK  6 active torsions:
REMARK  status: ('A' for Active; 'I' for Inactive)
REMARK    1  A    between atoms: N_11  and  C_18
REMARK    2  A    between atoms: C_17  and  C_18
REMARK    3  A    between atoms: C_17  and  C_19
REMARK    4  A    between atoms: C_18  and  C_20
REMARK    5  A    between atoms: C_20  and  C_22
REMARK    6  A    between atoms: C_21  and  C_23
REMARK                            x       y       z     vdW  Elec       q    Type
REMARK                         _______ _______ _______ _____ _____    ______ ____
ROOT
ATOM      1  C   UNL     1      45.838  73.119  50.629  0.00  0.00    +0.000 C 
ENDROOT
BRANCH   1  11
ATOM      2  O   UNL     1      47.279  73.537  48.781  0.00  0.00    +0.000 OA
ATOM      3  N   UNL     1      47.555  71.495  49.776  0.00  0.00    +0.000 N 
ATOM      4  N   UNL     1      49.558  69.983  50.924  0.00  0.00    +0.000 N 
ATOM      5  N   UNL     1      50.944  70.101  49.243  0.00  0.00    +0.000 NA
ATOM      6  N   UNL     1      51.584  69.493  50.300  0.00  0.00    +0.000 NA
ATOM      7  C   UNL     1      47.164  70.426  50.696  0.00  0.00    +0.000 C 
ATOM      8  C   UNL     1      48.316  70.124  51.653  0.00  0.00    +0.000 C 
ATOM      9  C   UNL     1      48.670  71.159  48.877  0.00  0.00    +0.000 C 
ATOM     10  C   UNL     1      49.735  70.432  49.638  0.00  0.00    +0.000 A 
ATOM     11  C   UNL     1      46.935  72.728  49.646  0.00  0.00    +0.000 C 
ATOM     12  C   UNL     1      50.758  69.463  51.333  0.00  0.00    +0.000 A 
BRANCH  12  16
ATOM     13  F   UNL     1      50.417  69.725  53.663  0.00  0.00    +0.000 F 
ATOM     14  F   UNL     1      50.682  67.702  52.914  0.00  0.00    +0.000 F 
ATOM     15  F   UNL     1      52.380  69.076  53.006  0.00  0.00    +0.000 F 
ATOM     16  C   UNL     1      51.058  68.990  52.710  0.00  0.00    +0.000 C 
ENDBRANCH  12  16
ENDBRANCH   1  11
BRANCH   1  17
ATOM     17  C   UNL     1      46.190  74.273  51.585  0.00  0.00    +0.000 C 
BRANCH  17  18
ATOM     18  N   UNL     1      45.643  74.056  52.935  0.00  0.00    +0.000 NA
ATOM     19  H   UNL     1      45.615  74.946  53.431  0.00  0.00    +0.000 HD
ATOM     20  H   UNL     1      44.665  73.770  52.860  0.00  0.00    +0.000 HD
ENDBRANCH  17  18
BRANCH  17  21
ATOM     21  C   UNL     1      45.791  75.651  51.002  0.00  0.00    +0.000 C 
BRANCH  21  25
ATOM     22 BR   UNL     1      50.657  79.073  49.195  0.00  0.00    +0.000 Br
ATOM     23  F   UNL     1      47.907  76.465  52.744  0.00  0.00    +0.000 F 
ATOM     24  F   UNL     1      48.220  78.130  47.565  0.00  0.00    +0.000 F 
ATOM     25  C   UNL     1      46.955  76.520  50.571  0.00  0.00    +0.000 A 
ATOM     26  C   UNL     1      47.972  76.873  51.469  0.00  0.00    +0.000 A 
ATOM     27  C   UNL     1      47.057  76.965  49.245  0.00  0.00    +0.000 A 
ATOM     28  C   UNL     1      48.152  77.728  48.842  0.00  0.00    +0.000 A 
ATOM     29  C   UNL     1      49.067  77.640  51.072  0.00  0.00    +0.000 A 
ATOM     30  C   UNL     1      49.158  78.062  49.747  0.00  0.00    +0.000 A 
ENDBRANCH  21  25
ENDBRANCH  17  21
ENDBRANCH   1  17
TORSDOF 6
ENDMDL
MODEL 5
REMARK VINA RESULT:      -7.6     20.506     22.830
REMARK  Name = 20628271
REMARK  6 active torsions:
REMARK  status: ('A' for Active; 'I' for Inactive)
REMARK    1  A    between atoms: N_11  and  C_18
REMARK    2  A    between atoms: C_17  and  C_18
REMARK    3  A    between atoms: C_17  and  C_19
REMARK    4  A    between atoms: C_18  and  C_20
REMARK    5  A    between atoms: C_20  and  C_22
REMARK    6  A    between atoms: C_21  and  C_23
REMARK                            x       y       z     vdW  Elec       q    Type
REMARK                         _______ _______ _______ _____ _____    ______ ____
ROOT
ATOM      1  C   UNL     1      54.790  70.395  40.557  0.00  0.00    +0.000 C 
ENDROOT
BRANCH   1  11
ATOM      2  O   UNL     1      53.872  70.590  42.745  0.00  0.00    +0.000 OA
ATOM      3  N   UNL     1      52.334  70.291  41.077  0.00  0.00    +0.000 N 
ATOM      4  N   UNL     1      50.069  71.513  40.079  0.00  0.00    +0.000 N 
ATOM      5  N   UNL     1      48.992  71.610  41.972  0.00  0.00    +0.000 NA
ATOM      6  N   UNL     1      48.280  72.309  41.024  0.00  0.00    +0.000 NA
ATOM      7  C   UNL     1      51.942  69.985  39.701  0.00  0.00    +0.000 C 
ATOM      8  C   UNL     1      51.101  71.131  39.139  0.00  0.00    +0.000 C 
ATOM      9  C   UNL     1      51.217  70.398  42.029  0.00  0.00    +0.000 C 
ATOM     10  C   UNL     1      50.092  71.166  41.407  0.00  0.00    +0.000 A 
ATOM     11  C   UNL     1      53.631  70.417  41.548  0.00  0.00    +0.000 C 
ATOM     12  C   UNL     1      48.956  72.287  39.887  0.00  0.00    +0.000 A 
BRANCH  12  16
ATOM     13  F   UNL     1      49.721  73.332  37.903  0.00  0.00    +0.000 F 
ATOM     14  F   UNL     1      47.842  72.245  37.799  0.00  0.00    +0.000 F 
ATOM     15  F   UNL     1      47.952  74.158  38.851  0.00  0.00    +0.000 F 
ATOM     16  C   UNL     1      48.615  72.994  38.625  0.00  0.00    +0.000 C 
ENDBRANCH  12  16
ENDBRANCH   1  11
BRANCH   1  17
ATOM     17  C   UNL     1      55.824  71.522  40.728  0.00  0.00    +0.000 C 
BRANCH  17  18
ATOM     18  N   UNL     1      55.281  72.655  41.496  0.00  0.00    +0.000 NA
ATOM     19  H   UNL     1      55.514  73.525  41.016  0.00  0.00    +0.000 HD
ATOM     20  H   UNL     1      54.260  72.615  41.479  0.00  0.00    +0.000 HD
ENDBRANCH  17  18
BRANCH  17  21
ATOM     21  C   UNL     1      56.429  71.965  39.372  0.00  0.00    +0.000 C 
BRANCH  21  25
ATOM     22 BR   UNL     1      61.009  68.379  37.176  0.00  0.00    +0.000 Br
ATOM     23  F   UNL     1      56.972  71.591  36.589  0.00  0.00    +0.000 F 
ATOM     24  F   UNL     1      60.158  68.893  40.092  0.00  0.00    +0.000 F 
ATOM     25  C   UNL     1      57.519  71.058  38.836  0.00  0.00    +0.000 A 
ATOM     26  C   UNL     1      57.747  70.929  37.459  0.00  0.00    +0.000 A 
ATOM     27  C   UNL     1      58.349  70.350  39.716  0.00  0.00    +0.000 A 
ATOM     28  C   UNL     1      59.379  69.551  39.220  0.00  0.00    +0.000 A 
ATOM     29  C   UNL     1      58.772  70.127  36.959  0.00  0.00    +0.000 A 
ATOM     30  C   UNL     1      59.596  69.441  37.848  0.00  0.00    +0.000 A 
ENDBRANCH  21  25
ENDBRANCH  17  21
ENDBRANCH   1  17
TORSDOF 6
ENDMDL
MODEL 6
REMARK VINA RESULT:      -7.4      5.631      7.569
REMARK  Name = 20628271
REMARK  6 active torsions:
REMARK  status: ('A' for Active; 'I' for Inactive)
REMARK    1  A    between atoms: N_11  and  C_18
REMARK    2  A    between atoms: C_17  and  C_18
REMARK    3  A    between atoms: C_17  and  C_19
REMARK    4  A    between atoms: C_18  and  C_20
REMARK    5  A    between atoms: C_20  and  C_22
REMARK    6  A    between atoms: C_21  and  C_23
REMARK                            x       y       z     vdW  Elec       q    Type
REMARK                         _______ _______ _______ _____ _____    ______ ____
ROOT
ATOM      1  C   UNL     1      43.120  51.332  36.013  0.00  0.00    +0.000 C 
ENDROOT
BRANCH   1  11
ATOM      2  O   UNL     1      43.460  51.950  33.739  0.00  0.00    +0.000 OA
ATOM      3  N   UNL     1      45.364  51.834  35.002  0.00  0.00    +0.000 N 
ATOM      4  N   UNL     1      47.512  53.424  35.698  0.00  0.00    +0.000 N 
ATOM      5  N   UNL     1      48.090  53.953  33.663  0.00  0.00    +0.000 NA
ATOM      6  N   UNL     1      48.848  54.693  34.543  0.00  0.00    +0.000 NA
ATOM      7  C   UNL     1      46.112  51.485  36.212  0.00  0.00    +0.000 C 
ATOM      8  C   UNL     1      46.816  52.726  36.758  0.00  0.00    +0.000 C 
ATOM      9  C   UNL     1      46.193  52.285  33.873  0.00  0.00    +0.000 C 
ATOM     10  C   UNL     1      47.256  53.219  34.364  0.00  0.00    +0.000 A 
ATOM     11  C   UNL     1      43.996  51.714  34.825  0.00  0.00    +0.000 C 
ATOM     12  C   UNL     1      48.465  54.404  35.776  0.00  0.00    +0.000 A 
BRANCH  12  16
ATOM     13  F   UNL     1      49.882  55.995  36.812  0.00  0.00    +0.000 F 
ATOM     14  F   UNL     1      47.939  55.647  37.720  0.00  0.00    +0.000 F 
ATOM     15  F   UNL     1      49.514  54.140  37.876  0.00  0.00    +0.000 F 
ATOM     16  C   UNL     1      48.938  55.037  37.035  0.00  0.00    +0.000 C 
ENDBRANCH  12  16
ENDBRANCH   1  11
BRANCH   1  17
ATOM     17  C   UNL     1      41.699  50.858  35.659  0.00  0.00    +0.000 C 
BRANCH  17  18
ATOM     18  N   UNL     1      40.870  51.955  35.129  0.00  0.00    +0.000 NA
ATOM     19  H   UNL     1      41.328  52.354  34.310  0.00  0.00    +0.000 HD
ATOM     20  H   UNL     1      39.991  51.572  34.775  0.00  0.00    +0.000 HD
ENDBRANCH  17  18
BRANCH  17  21
ATOM     21  C   UNL     1      41.020  50.125  36.843  0.00  0.00    +0.000 C 
BRANCH  21  25
ATOM     22 BR   UNL     1      34.835  50.755  36.896  0.00  0.00    +0.000 Br
ATOM     23  F   UNL     1      39.613  51.936  38.551  0.00  0.00    +0.000 F 
ATOM     24  F   UNL     1      36.589  48.846  35.233  0.00  0.00    +0.000 F 
ATOM     25  C   UNL     1      39.511  50.248  36.885  0.00  0.00    +0.000 A 
ATOM     26  C   UNL     1      38.879  51.168  37.733  0.00  0.00    +0.000 A 
ATOM     27  C   UNL     1      38.710  49.462  36.045  0.00  0.00    +0.000 A 
ATOM     28  C   UNL     1      37.323  49.610  36.055  0.00  0.00    +0.000 A 
ATOM     29  C   UNL     1      37.493  51.316  37.751  0.00  0.00    +0.000 A 
ATOM     30  C   UNL     1      36.713  50.535  36.900  0.00  0.00    +0.000 A 
ENDBRANCH  21  25
ENDBRANCH  17  21
ENDBRANCH   1  17
TORSDOF 6
ENDMDL
MODEL 7
REMARK VINA RESULT:      -7.4     27.358     28.808
REMARK  Name = 20628271
REMARK  6 active torsions:
REMARK  status: ('A' for Active; 'I' for Inactive)
REMARK    1  A    between atoms: N_11  and  C_18
REMARK    2  A    between atoms: C_17  and  C_18
REMARK    3  A    between atoms: C_17  and  C_19
REMARK    4  A    between atoms: C_18  and  C_20
REMARK    5  A    between atoms: C_20  and  C_22
REMARK    6  A    between atoms: C_21  and  C_23
REMARK                            x       y       z     vdW  Elec       q    Type
REMARK                         _______ _______ _______ _____ _____    ______ ____
ROOT
ATOM      1  C   UNL     1      45.575  73.427  50.101  0.00  0.00    +0.000 C 
ENDROOT
BRANCH   1  11
ATOM      2  O   UNL     1      45.645  74.128  52.375  0.00  0.00    +0.000 OA
ATOM      3  N   UNL     1      45.956  75.798  50.841  0.00  0.00    +0.000 N 
ATOM      4  N   UNL     1      47.797  77.764  50.237  0.00  0.00    +0.000 N 
ATOM      5  N   UNL     1      47.853  78.662  52.224  0.00  0.00    +0.000 NA
ATOM      6  N   UNL     1      48.829  79.246  51.448  0.00  0.00    +0.000 NA
ATOM      7  C   UNL     1      45.957  76.340  49.482  0.00  0.00    +0.000 C 
ATOM      8  C   UNL     1      47.334  76.917  49.159  0.00  0.00    +0.000 C 
ATOM      9  C   UNL     1      46.171  76.793  51.904  0.00  0.00    +0.000 C 
ATOM     10  C   UNL     1      47.260  77.739  51.500  0.00  0.00    +0.000 A 
ATOM     11  C   UNL     1      45.711  74.481  51.195  0.00  0.00    +0.000 C 
ATOM     12  C   UNL     1      48.824  78.670  50.257  0.00  0.00    +0.000 A 
BRANCH  12  16
ATOM     13  F   UNL     1      50.384  77.770  48.719  0.00  0.00    +0.000 F 
ATOM     14  F   UNL     1      49.162  79.434  48.043  0.00  0.00    +0.000 F 
ATOM     15  F   UNL     1      50.771  79.763  49.485  0.00  0.00    +0.000 F 
ATOM     16  C   UNL     1      49.771  78.913  49.138  0.00  0.00    +0.000 C 
ENDBRANCH  12  16
ENDBRANCH   1  11
BRANCH   1  17
ATOM     17  C   UNL     1      46.885  72.735  49.685  0.00  0.00    +0.000 C 
BRANCH  17  18
ATOM     18  N   UNL     1      47.309  73.127  48.331  0.00  0.00    +0.000 NA
ATOM     19  H   UNL     1      46.901  74.034  48.103  0.00  0.00    +0.000 HD
ATOM     20  H   UNL     1      48.318  73.288  48.327  0.00  0.00    +0.000 HD
ENDBRANCH  17  18
BRANCH  17  21
ATOM     21  C   UNL     1      46.807  71.197  49.857  0.00  0.00    +0.000 C 
BRANCH  21  25
ATOM     22 BR   UNL     1      51.443  68.560  53.053  0.00  0.00    +0.000 Br
ATOM     23  F   UNL     1      46.433  69.646  52.229  0.00  0.00    +0.000 F 
ATOM     24  F   UNL     1      51.566  70.331  50.536  0.00  0.00    +0.000 F 
ATOM     25  C   UNL     1      47.941  70.590  50.659  0.00  0.00    +0.000 A 
ATOM     26  C   UNL     1      47.692  69.824  51.806  0.00  0.00    +0.000 A 
ATOM     27  C   UNL     1      49.270  70.755  50.247  0.00  0.00    +0.000 A 
ATOM     28  C   UNL     1      50.307  70.157  50.963  0.00  0.00    +0.000 A 
ATOM     29  C   UNL     1      48.725  69.229  52.528  0.00  0.00    +0.000 A 
ATOM     30  C   UNL     1      50.040  69.393  52.097  0.00  0.00    +0.000 A 
ENDBRANCH  21  25
ENDBRANCH  17  21
ENDBRANCH   1  17
TORSDOF 6
ENDMDL
MODEL 8
REMARK VINA RESULT:      -7.4     24.223     25.684
REMARK  Name = 20628271
REMARK  6 active torsions:
REMARK  status: ('A' for Active; 'I' for Inactive)
REMARK    1  A    between atoms: N_11  and  C_18
REMARK    2  A    between atoms: C_17  and  C_18
REMARK    3  A    between atoms: C_17  and  C_19
REMARK    4  A    between atoms: C_18  and  C_20
REMARK    5  A    between atoms: C_20  and  C_22
REMARK    6  A    between atoms: C_21  and  C_23
REMARK                            x       y       z     vdW  Elec       q    Type
REMARK                         _______ _______ _______ _____ _____    ______ ____
ROOT
ATOM      1  C   UNL     1      28.692  65.742  39.164  0.00  0.00    +0.000 C 
ENDROOT
BRANCH   1  11
ATOM      2  O   UNL     1      27.268  66.363  40.968  0.00  0.00    +0.000 OA
ATOM      3  N   UNL     1      29.507  66.490  41.419  0.00  0.00    +0.000 N 
ATOM      4  N   UNL     1      31.327  65.529  43.259  0.00  0.00    +0.000 N 
ATOM      5  N   UNL     1      30.249  66.192  45.035  0.00  0.00    +0.000 NA
ATOM      6  N   UNL     1      31.315  65.416  45.431  0.00  0.00    +0.000 NA
ATOM      7  C   UNL     1      30.921  66.470  41.038  0.00  0.00    +0.000 C 
ATOM      8  C   UNL     1      31.659  65.411  41.855  0.00  0.00    +0.000 C 
ATOM      9  C   UNL     1      29.249  66.887  42.812  0.00  0.00    +0.000 C 
ATOM     10  C   UNL     1      30.236  66.223  43.721  0.00  0.00    +0.000 A 
ATOM     11  C   UNL     1      28.433  66.239  40.582  0.00  0.00    +0.000 C 
ATOM     12  C   UNL     1      31.943  64.978  44.352  0.00  0.00    +0.000 A 
BRANCH  12  16
ATOM     13  F   UNL     1      33.458  63.597  45.538  0.00  0.00    +0.000 F 
ATOM     14  F   UNL     1      32.807  62.914  43.580  0.00  0.00    +0.000 F 
ATOM     15  F   UNL     1      34.196  64.593  43.757  0.00  0.00    +0.000 F 
ATOM     16  C   UNL     1      33.086  64.030  44.300  0.00  0.00    +0.000 C 
ENDBRANCH  12  16
ENDBRANCH   1  11
BRANCH   1  17
ATOM     17  C   UNL     1      28.385  64.254  38.920  0.00  0.00    +0.000 C 
BRANCH  17  18
ATOM     18  N   UNL     1      28.490  63.461  40.157  0.00  0.00    +0.000 NA
ATOM     19  H   UNL     1      27.725  63.716  40.782  0.00  0.00    +0.000 HD
ATOM     20  H   UNL     1      28.331  62.475  39.941  0.00  0.00    +0.000 HD
ENDBRANCH  17  18
BRANCH  17  21
ATOM     21  C   UNL     1      29.241  63.666  37.770  0.00  0.00    +0.000 C 
BRANCH  21  25
ATOM     22 BR   UNL     1      29.705  67.469  32.873  0.00  0.00    +0.000 Br
ATOM     23  F   UNL     1      27.176  64.027  35.825  0.00  0.00    +0.000 F 
ATOM     24  F   UNL     1      31.783  66.834  35.057  0.00  0.00    +0.000 F 
ATOM     25  C   UNL     1      29.370  64.561  36.554  0.00  0.00    +0.000 A 
ATOM     26  C   UNL     1      28.315  64.710  35.643  0.00  0.00    +0.000 A 
ATOM     27  C   UNL     1      30.546  65.290  36.331  0.00  0.00    +0.000 A 
ATOM     28  C   UNL     1      30.645  66.147  35.234  0.00  0.00    +0.000 A 
ATOM     29  C   UNL     1      28.410  65.560  34.543  0.00  0.00    +0.000 A 
ATOM     30  C   UNL     1      29.582  66.288  34.344  0.00  0.00    +0.000 A 
ENDBRANCH  21  25
ENDBRANCH  17  21
ENDBRANCH   1  17
TORSDOF 6
ENDMDL
MODEL 9
REMARK VINA RESULT:      -7.2      9.423     13.006
REMARK  Name = 20628271
REMARK  6 active torsions:
REMARK  status: ('A' for Active; 'I' for Inactive)
REMARK    1  A    between atoms: N_11  and  C_18
REMARK    2  A    between atoms: C_17  and  C_18
REMARK    3  A    between atoms: C_17  and  C_19
REMARK    4  A    between atoms: C_18  and  C_20
REMARK    5  A    between atoms: C_20  and  C_22
REMARK    6  A    between atoms: C_21  and  C_23
REMARK                            x       y       z     vdW  Elec       q    Type
REMARK                         _______ _______ _______ _____ _____    ______ ____
ROOT
ATOM      1  C   UNL     1      43.083  51.204  39.601  0.00  0.00    +0.000 C 
ENDROOT
BRANCH   1  11
ATOM      2  O   UNL     1      43.474  50.457  37.374  0.00  0.00    +0.000 OA
ATOM      3  N   UNL     1      41.556  51.671  37.661  0.00  0.00    +0.000 N 
ATOM      4  N   UNL     1      38.844  51.434  37.206  0.00  0.00    +0.000 N 
ATOM      5  N   UNL     1      38.997  50.917  35.092  0.00  0.00    +0.000 NA
ATOM      6  N   UNL     1      37.684  50.783  35.484  0.00  0.00    +0.000 NA
ATOM      7  C   UNL     1      40.654  52.527  38.434  0.00  0.00    +0.000 C 
ATOM      8  C   UNL     1      39.272  51.880  38.513  0.00  0.00    +0.000 C 
ATOM      9  C   UNL     1      41.178  51.490  36.251  0.00  0.00    +0.000 C 
ATOM     10  C   UNL     1      39.700  51.270  36.145  0.00  0.00    +0.000 A 
ATOM     11  C   UNL     1      42.728  51.095  38.122  0.00  0.00    +0.000 C 
ATOM     12  C   UNL     1      37.599  51.053  36.776  0.00  0.00    +0.000 A 
BRANCH  12  16
ATOM     13  F   UNL     1      36.592  50.098  38.696  0.00  0.00    +0.000 F 
ATOM     14  F   UNL     1      36.022  52.129  38.175  0.00  0.00    +0.000 F 
ATOM     15  F   UNL     1      35.325  50.445  36.969  0.00  0.00    +0.000 F 
ATOM     16  C   UNL     1      36.396  50.939  37.641  0.00  0.00    +0.000 C 
ENDBRANCH  12  16
ENDBRANCH   1  11
BRANCH   1  17
ATOM     17  C   UNL     1      43.366  49.868  40.311  0.00  0.00    +0.000 C 
BRANCH  17  18
ATOM     18  N   UNL     1      44.576  49.212  39.787  0.00  0.00    +0.000 NA
ATOM     19  H   UNL     1      44.737  49.525  38.829  0.00  0.00    +0.000 HD
ATOM     20  H   UNL     1      45.391  49.542  40.308  0.00  0.00    +0.000 HD
ENDBRANCH  17  18
BRANCH  17  21
ATOM     21  C   UNL     1      42.133  48.930  40.294  0.00  0.00    +0.000 C 
BRANCH  21  25
ATOM     22 BR   UNL     1      40.489  46.943  45.951  0.00  0.00    +0.000 Br
ATOM     23  F   UNL     1      43.447  46.806  41.687  0.00  0.00    +0.000 F 
ATOM     24  F   UNL     1      39.212  49.134  44.203  0.00  0.00    +0.000 F 
ATOM     25  C   UNL     1      41.706  48.417  41.655  0.00  0.00    +0.000 A 
ATOM     26  C   UNL     1      42.402  47.383  42.295  0.00  0.00    +0.000 A 
ATOM     27  C   UNL     1      40.617  48.996  42.321  0.00  0.00    +0.000 A 
ATOM     28  C   UNL     1      40.254  48.552  43.593  0.00  0.00    +0.000 A 
ATOM     29  C   UNL     1      42.040  46.931  43.563  0.00  0.00    +0.000 A 
ATOM     30  C   UNL     1      40.963  47.527  44.217  0.00  0.00    +0.000 A 
ENDBRANCH  21  25
ENDBRANCH  17  21
ENDBRANCH   1  17
TORSDOF 6
ENDMDL
