MODEL 1
REMARK VINA RESULT:      -8.2      0.000      0.000
REMARK  Name = 9836052
REMARK  5 active torsions:
REMARK  status: ('A' for Active; 'I' for Inactive)
REMARK    1  A    between atoms: N_5  and  C_11
REMARK    2  A    between atoms: C_11  and  C_12
REMARK    3  A    between atoms: C_11  and  C_15
REMARK    4  A    between atoms: C_12  and  C_14
REMARK    5  A    between atoms: C_15  and  C_17
REMARK                            x       y       z     vdW  Elec       q    Type
REMARK                         _______ _______ _______ _____ _____    ______ ____
ROOT
ATOM      1  C   UNL     1      38.592  50.855  35.977  0.00  0.00    +0.000 C 
ENDROOT
BRANCH   1   2
ATOM      2  N   UNL     1      38.281  51.361  34.619  0.00  0.00    +0.000 NA
ATOM      3  H   UNL     1      38.678  52.292  34.497  0.00  0.00    +0.000 HD
ATOM      4  H   UNL     1      38.744  50.770  33.927  0.00  0.00    +0.000 HD
ENDBRANCH   1   2
BRANCH   1   5
ATOM      5  C   UNL     1      39.712  51.761  36.528  0.00  0.00    +0.000 C 
BRANCH   5  15
ATOM      6  O   UNL     1      40.583  50.810  38.567  0.00  0.00    +0.000 OA
ATOM      7  N   UNL     1      42.004  50.841  36.769  0.00  0.00    +0.000 N 
ATOM      8  N   UNL     1      44.619  51.407  36.071  0.00  0.00    +0.000 N 
ATOM      9  N   UNL     1      44.218  51.850  33.975  0.00  0.00    +0.000 NA
ATOM     10  N   UNL     1      45.544  52.124  34.241  0.00  0.00    +0.000 NA
ATOM     11  C   UNL     1      43.082  50.185  37.523  0.00  0.00    +0.000 C 
ATOM     12  C   UNL     1      42.257  51.010  35.328  0.00  0.00    +0.000 C 
ATOM     13  C   UNL     1      44.374  51.000  37.436  0.00  0.00    +0.000 C 
ATOM     14  C   UNL     1      43.664  51.429  35.092  0.00  0.00    +0.000 A 
ATOM     15  C   UNL     1      40.778  51.089  37.386  0.00  0.00    +0.000 C 
ATOM     16  C   UNL     1      45.764  51.863  35.509  0.00  0.00    +0.000 A 
ENDBRANCH   5  15
ENDBRANCH   1   5
BRANCH   1  17
ATOM     17  C   UNL     1      37.310  50.863  36.850  0.00  0.00    +0.000 C 
BRANCH  17  19
ATOM     18  F   UNL     1      34.467  51.210  36.971  0.00  0.00    +0.000 F 
ATOM     19  C   UNL     1      36.303  49.770  36.544  0.00  0.00    +0.000 A 
ATOM     20  C   UNL     1      34.926  50.004  36.609  0.00  0.00    +0.000 A 
ATOM     21  C   UNL     1      36.740  48.489  36.164  0.00  0.00    +0.000 A 
ATOM     22  C   UNL     1      34.002  49.005  36.302  0.00  0.00    +0.000 A 
ATOM     23  C   UNL     1      35.818  47.484  35.855  0.00  0.00    +0.000 A 
ATOM     24  C   UNL     1      34.448  47.742  35.920  0.00  0.00    +0.000 A 
ENDBRANCH  17  19
ENDBRANCH   1  17
TORSDOF 5
ENDMDL
MODEL 2
REMARK VINA RESULT:      -8.0      2.041      2.456
REMARK  Name = 9836052
REMARK  5 active torsions:
REMARK  status: ('A' for Active; 'I' for Inactive)
REMARK    1  A    between atoms: N_5  and  C_11
REMARK    2  A    between atoms: C_11  and  C_12
REMARK    3  A    between atoms: C_11  and  C_15
REMARK    4  A    between atoms: C_12  and  C_14
REMARK    5  A    between atoms: C_15  and  C_17
REMARK                            x       y       z     vdW  Elec       q    Type
REMARK                         _______ _______ _______ _____ _____    ______ ____
ROOT
ATOM      1  C   UNL     1      38.617  50.682  35.878  0.00  0.00    +0.000 C 
ENDROOT
BRANCH   1   2
ATOM      2  N   UNL     1      38.461  51.493  34.648  0.00  0.00    +0.000 NA
ATOM      3  H   UNL     1      38.823  52.433  34.805  0.00  0.00    +0.000 HD
ATOM      4  H   UNL     1      39.039  51.093  33.908  0.00  0.00    +0.000 HD
ENDBRANCH   1   2
BRANCH   1   5
ATOM      5  C   UNL     1      39.877  51.215  36.590  0.00  0.00    +0.000 C 
BRANCH   5  15
ATOM      6  O   UNL     1      41.410  50.368  34.931  0.00  0.00    +0.000 OA
ATOM      7  N   UNL     1      42.086  52.227  36.089  0.00  0.00    +0.000 N 
ATOM      8  N   UNL     1      44.281  53.313  37.372  0.00  0.00    +0.000 N 
ATOM      9  N   UNL     1      43.159  54.618  38.708  0.00  0.00    +0.000 NA
ATOM     10  N   UNL     1      44.495  54.683  39.044  0.00  0.00    +0.000 NA
ATOM     11  C   UNL     1      43.353  52.311  35.347  0.00  0.00    +0.000 C 
ATOM     12  C   UNL     1      41.805  53.363  36.984  0.00  0.00    +0.000 C 
ATOM     13  C   UNL     1      44.539  52.364  36.312  0.00  0.00    +0.000 C 
ATOM     14  C   UNL     1      43.038  53.776  37.703  0.00  0.00    +0.000 A 
ATOM     15  C   UNL     1      41.170  51.222  35.783  0.00  0.00    +0.000 C 
ATOM     16  C   UNL     1      45.154  53.882  38.237  0.00  0.00    +0.000 A 
ENDBRANCH   5  15
ENDBRANCH   1   5
BRANCH   1  17
ATOM     17  C   UNL     1      37.334  50.784  36.744  0.00  0.00    +0.000 C 
BRANCH  17  19
ATOM     18  F   UNL     1      34.513  51.216  37.014  0.00  0.00    +0.000 F 
ATOM     19  C   UNL     1      36.279  49.726  36.478  0.00  0.00    +0.000 A 
ATOM     20  C   UNL     1      34.914  50.002  36.615  0.00  0.00    +0.000 A 
ATOM     21  C   UNL     1      36.655  48.437  36.061  0.00  0.00    +0.000 A 
ATOM     22  C   UNL     1      33.946  49.035  36.345  0.00  0.00    +0.000 A 
ATOM     23  C   UNL     1      35.688  47.465  35.788  0.00  0.00    +0.000 A 
ATOM     24  C   UNL     1      34.332  47.764  35.926  0.00  0.00    +0.000 A 
ENDBRANCH  17  19
ENDBRANCH   1  17
TORSDOF 5
ENDMDL
MODEL 3
REMARK VINA RESULT:      -7.9     26.654     28.807
REMARK  Name = 9836052
REMARK  5 active torsions:
REMARK  status: ('A' for Active; 'I' for Inactive)
REMARK    1  A    between atoms: N_5  and  C_11
REMARK    2  A    between atoms: C_11  and  C_12
REMARK    3  A    between atoms: C_11  and  C_15
REMARK    4  A    between atoms: C_12  and  C_14
REMARK    5  A    between atoms: C_15  and  C_17
REMARK                            x       y       z     vdW  Elec       q    Type
REMARK                         _______ _______ _______ _____ _____    ______ ____
ROOT
ATOM      1  C   UNL     1      46.511  74.883  49.432  0.00  0.00    +0.000 C 
ENDROOT
BRANCH   1   2
ATOM      2  N   UNL     1      45.036  74.818  49.303  0.00  0.00    +0.000 NA
ATOM      3  H   UNL     1      44.598  75.256  50.112  0.00  0.00    +0.000 HD
ATOM      4  H   UNL     1      44.746  75.373  48.497  0.00  0.00    +0.000 HD
ENDBRANCH   1   2
BRANCH   1   5
ATOM      5  C   UNL     1      47.042  73.498  49.009  0.00  0.00    +0.000 C 
BRANCH   5  15
ATOM      6  O   UNL     1      45.743  72.318  50.663  0.00  0.00    +0.000 OA
ATOM      7  N   UNL     1      47.673  71.297  49.965  0.00  0.00    +0.000 N 
ATOM      8  N   UNL     1      49.881  69.933  50.918  0.00  0.00    +0.000 N 
ATOM      9  N   UNL     1      51.202  70.419  49.254  0.00  0.00    +0.000 NA
ATOM     10  N   UNL     1      51.929  69.751  50.216  0.00  0.00    +0.000 NA
ATOM     11  C   UNL     1      47.449  70.129  50.830  0.00  0.00    +0.000 C 
ATOM     12  C   UNL     1      48.802  71.177  49.027  0.00  0.00    +0.000 C 
ATOM     13  C   UNL     1      48.673  69.867  51.709  0.00  0.00    +0.000 C 
ATOM     14  C   UNL     1      49.966  70.536  49.693  0.00  0.00    +0.000 A 
ATOM     15  C   UNL     1      46.739  72.332  49.943  0.00  0.00    +0.000 C 
ATOM     16  C   UNL     1      51.122  69.477  51.216  0.00  0.00    +0.000 A 
ENDBRANCH   5  15
ENDBRANCH   1   5
BRANCH   1  17
ATOM     17  C   UNL     1      47.066  76.044  48.567  0.00  0.00    +0.000 C 
BRANCH  17  19
ATOM     18  F   UNL     1      48.272  78.343  47.352  0.00  0.00    +0.000 F 
ATOM     19  C   UNL     1      48.160  76.875  49.212  0.00  0.00    +0.000 A 
ATOM     20  C   UNL     1      48.701  77.996  48.573  0.00  0.00    +0.000 A 
ATOM     21  C   UNL     1      48.643  76.545  50.490  0.00  0.00    +0.000 A 
ATOM     22  C   UNL     1      49.687  78.773  49.179  0.00  0.00    +0.000 A 
ATOM     23  C   UNL     1      49.631  77.322  51.102  0.00  0.00    +0.000 A 
ATOM     24  C   UNL     1      50.152  78.439  50.449  0.00  0.00    +0.000 A 
ENDBRANCH  17  19
ENDBRANCH   1  17
TORSDOF 5
ENDMDL
MODEL 4
REMARK VINA RESULT:      -7.8      2.702      3.684
REMARK  Name = 9836052
REMARK  5 active torsions:
REMARK  status: ('A' for Active; 'I' for Inactive)
REMARK    1  A    between atoms: N_5  and  C_11
REMARK    2  A    between atoms: C_11  and  C_12
REMARK    3  A    between atoms: C_11  and  C_15
REMARK    4  A    between atoms: C_12  and  C_14
REMARK    5  A    between atoms: C_15  and  C_17
REMARK                            x       y       z     vdW  Elec       q    Type
REMARK                         _______ _______ _______ _____ _____    ______ ____
ROOT
ATOM      1  C   UNL     1      38.564  50.458  35.559  0.00  0.00    +0.000 C 
ENDROOT
BRANCH   1   2
ATOM      2  N   UNL     1      38.402  51.613  34.645  0.00  0.00    +0.000 NA
ATOM      3  H   UNL     1      37.423  51.897  34.617  0.00  0.00    +0.000 HD
ATOM      4  H   UNL     1      38.912  52.413  35.022  0.00  0.00    +0.000 HD
ENDBRANCH   1   2
BRANCH   1   5
ATOM      5  C   UNL     1      39.987  50.566  36.144  0.00  0.00    +0.000 C 
BRANCH   5  15
ATOM      6  O   UNL     1      41.130  52.354  34.996  0.00  0.00    +0.000 OA
ATOM      7  N   UNL     1      40.765  52.652  37.239  0.00  0.00    +0.000 N 
ATOM      8  N   UNL     1      42.011  53.517  39.551  0.00  0.00    +0.000 N 
ATOM      9  N   UNL     1      40.773  52.376  40.934  0.00  0.00    +0.000 NA
ATOM     10  N   UNL     1      41.780  52.992  41.646  0.00  0.00    +0.000 NA
ATOM     11  C   UNL     1      41.394  53.981  37.234  0.00  0.00    +0.000 C 
ATOM     12  C   UNL     1      40.104  52.275  38.500  0.00  0.00    +0.000 C 
ATOM     13  C   UNL     1      42.489  54.063  38.300  0.00  0.00    +0.000 C 
ATOM     14  C   UNL     1      40.929  52.689  39.665  0.00  0.00    +0.000 A 
ATOM     15  C   UNL     1      40.665  51.929  36.052  0.00  0.00    +0.000 C 
ATOM     16  C   UNL     1      42.523  53.665  40.797  0.00  0.00    +0.000 A 
ENDBRANCH   5  15
ENDBRANCH   1   5
BRANCH   1  17
ATOM     17  C   UNL     1      37.453  50.481  36.641  0.00  0.00    +0.000 C 
BRANCH  17  19
ATOM     18  F   UNL     1      34.709  51.140  37.143  0.00  0.00    +0.000 F 
ATOM     19  C   UNL     1      36.291  49.533  36.406  0.00  0.00    +0.000 A 
ATOM     20  C   UNL     1      34.970  49.919  36.658  0.00  0.00    +0.000 A 
ATOM     21  C   UNL     1      36.519  48.241  35.902  0.00  0.00    +0.000 A 
ATOM     22  C   UNL     1      33.902  49.056  36.416  0.00  0.00    +0.000 A 
ATOM     23  C   UNL     1      35.451  47.372  35.657  0.00  0.00    +0.000 A 
ATOM     24  C   UNL     1      34.141  47.780  35.911  0.00  0.00    +0.000 A 
ENDBRANCH  17  19
ENDBRANCH   1  17
TORSDOF 5
ENDMDL
MODEL 5
REMARK VINA RESULT:      -7.5     17.353     19.405
REMARK  Name = 9836052
REMARK  5 active torsions:
REMARK  status: ('A' for Active; 'I' for Inactive)
REMARK    1  A    between atoms: N_5  and  C_11
REMARK    2  A    between atoms: C_11  and  C_12
REMARK    3  A    between atoms: C_11  and  C_15
REMARK    4  A    between atoms: C_12  and  C_14
REMARK    5  A    between atoms: C_15  and  C_17
REMARK                            x       y       z     vdW  Elec       q    Type
REMARK                         _______ _______ _______ _____ _____    ______ ____
ROOT
ATOM      1  C   UNL     1      28.549  63.879  36.361  0.00  0.00    +0.000 C 
ENDROOT
BRANCH   1   2
ATOM      2  N   UNL     1      29.215  62.637  35.901  0.00  0.00    +0.000 NA
ATOM      3  H   UNL     1      29.386  62.021  36.696  0.00  0.00    +0.000 HD
ATOM      4  H   UNL     1      28.581  62.125  35.286  0.00  0.00    +0.000 HD
ENDBRANCH   1   2
BRANCH   1   5
ATOM      5  C   UNL     1      28.681  63.896  37.897  0.00  0.00    +0.000 C 
BRANCH   5  15
ATOM      6  O   UNL     1      31.092  63.810  37.876  0.00  0.00    +0.000 OA
ATOM      7  N   UNL     1      30.123  64.796  39.706  0.00  0.00    +0.000 N 
ATOM      8  N   UNL     1      30.282  64.894  42.464  0.00  0.00    +0.000 N 
ATOM      9  N   UNL     1      28.214  65.493  42.804  0.00  0.00    +0.000 NA
ATOM     10  N   UNL     1      28.812  65.252  44.023  0.00  0.00    +0.000 NA
ATOM     11  C   UNL     1      31.425  65.100  40.316  0.00  0.00    +0.000 C 
ATOM     12  C   UNL     1      28.956  65.375  40.391  0.00  0.00    +0.000 C 
ATOM     13  C   UNL     1      31.490  64.558  41.745  0.00  0.00    +0.000 C 
ATOM     14  C   UNL     1      29.108  65.261  41.865  0.00  0.00    +0.000 A 
ATOM     15  C   UNL     1      30.071  64.163  38.464  0.00  0.00    +0.000 C 
ATOM     16  C   UNL     1      30.052  64.881  43.799  0.00  0.00    +0.000 A 
ENDBRANCH   5  15
ENDBRANCH   1   5
BRANCH   1  17
ATOM     17  C   UNL     1      29.197  65.110  35.675  0.00  0.00    +0.000 C 
BRANCH  17  19
ATOM     18  F   UNL     1      29.417  67.173  37.653  0.00  0.00    +0.000 F 
ATOM     19  C   UNL     1      28.363  66.378  35.683  0.00  0.00    +0.000 A 
ATOM     20  C   UNL     1      28.526  67.355  36.670  0.00  0.00    +0.000 A 
ATOM     21  C   UNL     1      27.413  66.609  34.673  0.00  0.00    +0.000 A 
ATOM     22  C   UNL     1      27.776  68.531  36.660  0.00  0.00    +0.000 A 
ATOM     23  C   UNL     1      26.659  67.786  34.659  0.00  0.00    +0.000 A 
ATOM     24  C   UNL     1      26.843  68.750  35.650  0.00  0.00    +0.000 A 
ENDBRANCH  17  19
ENDBRANCH   1  17
TORSDOF 5
ENDMDL
MODEL 6
REMARK VINA RESULT:      -6.9     17.003     18.857
REMARK  Name = 9836052
REMARK  5 active torsions:
REMARK  status: ('A' for Active; 'I' for Inactive)
REMARK    1  A    between atoms: N_5  and  C_11
REMARK    2  A    between atoms: C_11  and  C_12
REMARK    3  A    between atoms: C_11  and  C_15
REMARK    4  A    between atoms: C_12  and  C_14
REMARK    5  A    between atoms: C_15  and  C_17
REMARK                            x       y       z     vdW  Elec       q    Type
REMARK                         _______ _______ _______ _____ _____    ______ ____
ROOT
ATOM      1  C   UNL     1      30.719  64.307  37.750  0.00  0.00    +0.000 C 
ENDROOT
BRANCH   1   2
ATOM      2  N   UNL     1      31.945  63.483  37.867  0.00  0.00    +0.000 NA
ATOM      3  H   UNL     1      32.240  63.437  38.842  0.00  0.00    +0.000 HD
ATOM      4  H   UNL     1      31.730  62.523  37.597  0.00  0.00    +0.000 HD
ENDBRANCH   1   2
BRANCH   1   5
ATOM      5  C   UNL     1      30.529  64.993  39.118  0.00  0.00    +0.000 C 
BRANCH   5  15
ATOM      6  O   UNL     1      28.691  63.660  39.933  0.00  0.00    +0.000 OA
ATOM      7  N   UNL     1      30.326  64.181  41.454  0.00  0.00    +0.000 N 
ATOM      8  N   UNL     1      30.682  65.045  44.056  0.00  0.00    +0.000 N 
ATOM      9  N   UNL     1      32.652  65.925  43.751  0.00  0.00    +0.000 NA
ATOM     10  N   UNL     1      32.233  66.211  45.033  0.00  0.00    +0.000 NA
ATOM     11  C   UNL     1      29.656  63.437  42.531  0.00  0.00    +0.000 C 
ATOM     12  C   UNL     1      31.670  64.686  41.780  0.00  0.00    +0.000 C 
ATOM     13  C   UNL     1      29.462  64.327  43.760  0.00  0.00    +0.000 C 
ATOM     14  C   UNL     1      31.701  65.230  43.163  0.00  0.00    +0.000 A 
ATOM     15  C   UNL     1      29.763  64.210  40.178  0.00  0.00    +0.000 C 
ATOM     16  C   UNL     1      31.040  65.683  45.196  0.00  0.00    +0.000 A 
ENDBRANCH   5  15
ENDBRANCH   1   5
BRANCH   1  17
ATOM     17  C   UNL     1      30.867  65.310  36.576  0.00  0.00    +0.000 C 
BRANCH  17  19
ATOM     18  F   UNL     1      29.922  67.941  37.206  0.00  0.00    +0.000 F 
ATOM     19  C   UNL     1      29.570  65.899  36.052  0.00  0.00    +0.000 A 
ATOM     20  C   UNL     1      29.168  67.197  36.386  0.00  0.00    +0.000 A 
ATOM     21  C   UNL     1      28.747  65.152  35.192  0.00  0.00    +0.000 A 
ATOM     22  C   UNL     1      27.989  67.746  35.882  0.00  0.00    +0.000 A 
ATOM     23  C   UNL     1      27.564  65.698  34.684  0.00  0.00    +0.000 A 
ATOM     24  C   UNL     1      27.186  66.997  35.026  0.00  0.00    +0.000 A 
ENDBRANCH  17  19
ENDBRANCH   1  17
TORSDOF 5
ENDMDL
MODEL 7
REMARK VINA RESULT:      -6.7     18.054     19.984
REMARK  Name = 9836052
REMARK  5 active torsions:
REMARK  status: ('A' for Active; 'I' for Inactive)
REMARK    1  A    between atoms: N_5  and  C_11
REMARK    2  A    between atoms: C_11  and  C_12
REMARK    3  A    between atoms: C_11  and  C_15
REMARK    4  A    between atoms: C_12  and  C_14
REMARK    5  A    between atoms: C_15  and  C_17
REMARK                            x       y       z     vdW  Elec       q    Type
REMARK                         _______ _______ _______ _____ _____    ______ ____
ROOT
ATOM      1  C   UNL     1      28.280  64.663  36.660  0.00  0.00    +0.000 C 
ENDROOT
BRANCH   1   2
ATOM      2  N   UNL     1      28.244  63.365  35.946  0.00  0.00    +0.000 NA
ATOM      3  H   UNL     1      28.994  63.328  35.256  0.00  0.00    +0.000 HD
ATOM      4  H   UNL     1      28.439  62.613  36.608  0.00  0.00    +0.000 HD
ENDBRANCH   1   2
BRANCH   1   5
ATOM      5  C   UNL     1      29.361  64.525  37.751  0.00  0.00    +0.000 C 
BRANCH   5  15
ATOM      6  O   UNL     1      28.128  62.906  39.047  0.00  0.00    +0.000 OA
ATOM      7  N   UNL     1      29.524  64.297  40.217  0.00  0.00    +0.000 N 
ATOM      8  N   UNL     1      29.636  65.846  42.505  0.00  0.00    +0.000 N 
ATOM      9  N   UNL     1      31.166  67.223  41.789  0.00  0.00    +0.000 NA
ATOM     10  N   UNL     1      30.713  67.662  43.015  0.00  0.00    +0.000 NA
ATOM     11  C   UNL     1      29.189  63.665  41.501  0.00  0.00    +0.000 C 
ATOM     12  C   UNL     1      30.618  65.282  40.268  0.00  0.00    +0.000 C 
ATOM     13  C   UNL     1      28.735  64.715  42.517  0.00  0.00    +0.000 C 
ATOM     14  C   UNL     1      30.499  66.130  41.482  0.00  0.00    +0.000 A 
ATOM     15  C   UNL     1      28.949  63.821  39.040  0.00  0.00    +0.000 C 
ATOM     16  C   UNL     1      29.784  66.828  43.426  0.00  0.00    +0.000 A 
ENDBRANCH   5  15
ENDBRANCH   1   5
BRANCH   1  17
ATOM     17  C   UNL     1      28.566  65.810  35.655  0.00  0.00    +0.000 C 
BRANCH  17  19
ATOM     18  F   UNL     1      26.742  67.400  34.119  0.00  0.00    +0.000 F 
ATOM     19  C   UNL     1      28.071  67.183  36.072  0.00  0.00    +0.000 A 
ATOM     20  C   UNL     1      27.169  67.906  35.284  0.00  0.00    +0.000 A 
ATOM     21  C   UNL     1      28.496  67.753  37.284  0.00  0.00    +0.000 A 
ATOM     22  C   UNL     1      26.696  69.156  35.681  0.00  0.00    +0.000 A 
ATOM     23  C   UNL     1      28.024  69.006  37.687  0.00  0.00    +0.000 A 
ATOM     24  C   UNL     1      27.120  69.707  36.888  0.00  0.00    +0.000 A 
ENDBRANCH  17  19
ENDBRANCH   1  17
TORSDOF 5
ENDMDL
MODEL 8
REMARK VINA RESULT:      -6.6     17.933     19.559
REMARK  Name = 9836052
REMARK  5 active torsions:
REMARK  status: ('A' for Active; 'I' for Inactive)
REMARK    1  A    between atoms: N_5  and  C_11
REMARK    2  A    between atoms: C_11  and  C_12
REMARK    3  A    between atoms: C_11  and  C_15
REMARK    4  A    between atoms: C_12  and  C_14
REMARK    5  A    between atoms: C_15  and  C_17
REMARK                            x       y       z     vdW  Elec       q    Type
REMARK                         _______ _______ _______ _____ _____    ______ ____
ROOT
ATOM      1  C   UNL     1      28.224  64.289  36.139  0.00  0.00    +0.000 C 
ENDROOT
BRANCH   1   2
ATOM      2  N   UNL     1      28.710  62.901  35.962  0.00  0.00    +0.000 NA
ATOM      3  H   UNL     1      29.547  62.898  35.378  0.00  0.00    +0.000 HD
ATOM      4  H   UNL     1      29.004  62.531  36.867  0.00  0.00    +0.000 HD
ENDBRANCH   1   2
BRANCH   1   5
ATOM      5  C   UNL     1      29.083  64.908  37.260  0.00  0.00    +0.000 C 
BRANCH   5  15
ATOM      6  O   UNL     1      28.140  63.403  38.891  0.00  0.00    +0.000 OA
ATOM      7  N   UNL     1      29.843  64.755  39.617  0.00  0.00    +0.000 N 
ATOM      8  N   UNL     1      30.587  66.371  41.734  0.00  0.00    +0.000 N 
ATOM      9  N   UNL     1      31.951  67.638  40.601  0.00  0.00    +0.000 NA
ATOM     10  N   UNL     1      31.836  68.142  41.880  0.00  0.00    +0.000 NA
ATOM     11  C   UNL     1      29.808  64.185  40.972  0.00  0.00    +0.000 C 
ATOM     12  C   UNL     1      30.958  65.680  39.352  0.00  0.00    +0.000 C 
ATOM     13  C   UNL     1      29.667  65.292  42.019  0.00  0.00    +0.000 C 
ATOM     14  C   UNL     1      31.181  66.573  40.519  0.00  0.00    +0.000 A 
ATOM     15  C   UNL     1      28.973  64.272  38.641  0.00  0.00    +0.000 C 
ATOM     16  C   UNL     1      31.002  67.374  42.544  0.00  0.00    +0.000 A 
ENDBRANCH   5  15
ENDBRANCH   1   5
BRANCH   1  17
ATOM     17  C   UNL     1      28.322  65.058  34.795  0.00  0.00    +0.000 C 
BRANCH  17  19
ATOM     18  F   UNL     1      30.592  66.795  34.578  0.00  0.00    +0.000 F 
ATOM     19  C   UNL     1      28.252  66.571  34.900  0.00  0.00    +0.000 A 
ATOM     20  C   UNL     1      29.396  67.367  34.773  0.00  0.00    +0.000 A 
ATOM     21  C   UNL     1      27.019  67.212  35.108  0.00  0.00    +0.000 A 
ATOM     22  C   UNL     1      29.325  68.758  34.844  0.00  0.00    +0.000 A 
ATOM     23  C   UNL     1      26.943  68.606  35.179  0.00  0.00    +0.000 A 
ATOM     24  C   UNL     1      28.096  69.381  35.043  0.00  0.00    +0.000 A 
ENDBRANCH  17  19
ENDBRANCH   1  17
TORSDOF 5
ENDMDL
MODEL 9
REMARK VINA RESULT:      -6.5     18.076     20.406
REMARK  Name = 9836052
REMARK  5 active torsions:
REMARK  status: ('A' for Active; 'I' for Inactive)
REMARK    1  A    between atoms: N_5  and  C_11
REMARK    2  A    between atoms: C_11  and  C_12
REMARK    3  A    between atoms: C_11  and  C_15
REMARK    4  A    between atoms: C_12  and  C_14
REMARK    5  A    between atoms: C_15  and  C_17
REMARK                            x       y       z     vdW  Elec       q    Type
REMARK                         _______ _______ _______ _____ _____    ______ ____
ROOT
ATOM      1  C   UNL     1      31.066  64.768  38.821  0.00  0.00    +0.000 C 
ENDROOT
BRANCH   1   2
ATOM      2  N   UNL     1      32.110  65.803  38.640  0.00  0.00    +0.000 NA
ATOM      3  H   UNL     1      32.374  65.861  37.657  0.00  0.00    +0.000 HD
ATOM      4  H   UNL     1      31.722  66.716  38.876  0.00  0.00    +0.000 HD
ENDBRANCH   1   2
BRANCH   1   5
ATOM      5  C   UNL     1      29.790  65.514  39.259  0.00  0.00    +0.000 C 
BRANCH   5  15
ATOM      6  O   UNL     1      29.274  63.967  41.036  0.00  0.00    +0.000 OA
ATOM      7  N   UNL     1      28.492  66.107  41.289  0.00  0.00    +0.000 N 
ATOM      8  N   UNL     1      26.246  67.527  42.052  0.00  0.00    +0.000 N 
ATOM      9  N   UNL     1      26.704  69.331  40.918  0.00  0.00    +0.000 NA
ATOM     10  N   UNL     1      25.453  69.467  41.482  0.00  0.00    +0.000 NA
ATOM     11  C   UNL     1      27.890  65.805  42.596  0.00  0.00    +0.000 C 
ATOM     12  C   UNL     1      28.473  67.528  40.901  0.00  0.00    +0.000 C 
ATOM     13  C   UNL     1      26.413  66.205  42.614  0.00  0.00    +0.000 C 
ATOM     14  C   UNL     1      27.171  68.148  41.258  0.00  0.00    +0.000 A 
ATOM     15  C   UNL     1      29.186  65.113  40.600  0.00  0.00    +0.000 C 
ATOM     16  C   UNL     1      25.188  68.368  42.151  0.00  0.00    +0.000 A 
ENDBRANCH   5  15
ENDBRANCH   1   5
BRANCH   1  17
ATOM     17  C   UNL     1      30.886  63.964  37.506  0.00  0.00    +0.000 C 
BRANCH  17  19
ATOM     18  F   UNL     1      31.369  66.077  35.631  0.00  0.00    +0.000 F 
ATOM     19  C   UNL     1      29.844  64.507  36.545  0.00  0.00    +0.000 A 
ATOM     20  C   UNL     1      30.145  65.533  35.643  0.00  0.00    +0.000 A 
ATOM     21  C   UNL     1      28.547  63.968  36.525  0.00  0.00    +0.000 A 
ATOM     22  C   UNL     1      29.194  66.012  34.742  0.00  0.00    +0.000 A 
ATOM     23  C   UNL     1      27.590  64.444  35.624  0.00  0.00    +0.000 A 
ATOM     24  C   UNL     1      27.914  65.464  34.729  0.00  0.00    +0.000 A 
ENDBRANCH  17  19
ENDBRANCH   1  17
TORSDOF 5
ENDMDL
