MODEL 1
REMARK VINA RESULT:      -8.0      0.000      0.000
REMARK  Name = 20628249
REMARK  7 active torsions:
REMARK  status: ('A' for Active; 'I' for Inactive)
REMARK    1  A    between atoms: N_8  and  C_14
REMARK    2  A    between atoms: C_13  and  C_14
REMARK    3  A    between atoms: C_13  and  C_15
REMARK    4  A    between atoms: C_14  and  C_17
REMARK    5  A    between atoms: C_16  and  C_18
REMARK    6  A    between atoms: C_17  and  C_19
REMARK    7  A    between atoms: C_18  and  C_20
REMARK                            x       y       z     vdW  Elec       q    Type
REMARK                         _______ _______ _______ _____ _____    ______ ____
ROOT
ATOM      1  C   UNL     1      47.174  73.767  49.133  0.00  0.00    +0.000 C 
ENDROOT
BRANCH   1  11
ATOM      2  O   UNL     1      45.812  72.587  50.727  0.00  0.00    +0.000 OA
ATOM      3  N   UNL     1      47.521  71.361  49.828  0.00  0.00    +0.000 N 
ATOM      4  N   UNL     1      49.455  69.619  50.751  0.00  0.00    +0.000 N 
ATOM      5  N   UNL     1      50.979  70.216  49.304  0.00  0.00    +0.000 NA
ATOM      6  N   UNL     1      51.567  69.424  50.265  0.00  0.00    +0.000 NA
ATOM      7  C   UNL     1      47.079  70.107  50.460  0.00  0.00    +0.000 C 
ATOM      8  C   UNL     1      48.163  69.578  51.407  0.00  0.00    +0.000 C 
ATOM      9  C   UNL     1      48.677  71.187  48.945  0.00  0.00    +0.000 C 
ATOM     10  C   UNL     1      49.711  70.356  49.625  0.00  0.00    +0.000 A 
ATOM     11  C   UNL     1      46.788  72.537  49.983  0.00  0.00    +0.000 C 
ATOM     12  C   UNL     1      50.653  69.091  51.152  0.00  0.00    +0.000 A 
BRANCH  12  13
ATOM     13  C   UNL     1      50.878  68.323  52.405  0.00  0.00    +0.000 C 
ATOM     14  C   UNL     1      51.997  68.920  53.242  0.00  0.00    +0.000 C 
ENDBRANCH  12  13
ENDBRANCH   1  11
BRANCH   1  15
ATOM     15  C   UNL     1      46.517  75.140  49.437  0.00  0.00    +0.000 C 
BRANCH  15  16
ATOM     16  N   UNL     1      45.052  74.958  49.289  0.00  0.00    +0.000 NA
ATOM     17  H   UNL     1      44.670  75.638  48.631  0.00  0.00    +0.000 HD
ATOM     18  H   UNL     1      44.856  74.039  48.886  0.00  0.00    +0.000 HD
ENDBRANCH  15  16
BRANCH  15  19
ATOM     19  C   UNL     1      46.974  76.266  48.479  0.00  0.00    +0.000 C 
BRANCH  19  22
ATOM     20  F   UNL     1      45.622  78.087  50.276  0.00  0.00    +0.000 F 
ATOM     21  F   UNL     1      50.849  79.168  49.175  0.00  0.00    +0.000 F 
ATOM     22  C   UNL     1      47.600  77.507  49.098  0.00  0.00    +0.000 A 
ATOM     23  C   UNL     1      46.903  78.346  49.977  0.00  0.00    +0.000 A 
ATOM     24  C   UNL     1      48.947  77.811  48.836  0.00  0.00    +0.000 A 
ATOM     25  C   UNL     1      49.561  78.912  49.431  0.00  0.00    +0.000 A 
ATOM     26  C   UNL     1      47.516  79.453  50.566  0.00  0.00    +0.000 A 
ATOM     27  C   UNL     1      48.859  79.739  50.298  0.00  0.00    +0.000 A 
ENDBRANCH  19  22
ENDBRANCH  15  19
ENDBRANCH   1  15
TORSDOF 6
ENDMDL
MODEL 2
REMARK VINA RESULT:      -7.5     21.480     23.517
REMARK  Name = 20628249
REMARK  7 active torsions:
REMARK  status: ('A' for Active; 'I' for Inactive)
REMARK    1  A    between atoms: N_8  and  C_14
REMARK    2  A    between atoms: C_13  and  C_14
REMARK    3  A    between atoms: C_13  and  C_15
REMARK    4  A    between atoms: C_14  and  C_17
REMARK    5  A    between atoms: C_16  and  C_18
REMARK    6  A    between atoms: C_17  and  C_19
REMARK    7  A    between atoms: C_18  and  C_20
REMARK                            x       y       z     vdW  Elec       q    Type
REMARK                         _______ _______ _______ _____ _____    ______ ____
ROOT
ATOM      1  C   UNL     1      29.041  64.529  38.504  0.00  0.00    +0.000 C 
ENDROOT
BRANCH   1  11
ATOM      2  O   UNL     1      30.506  66.403  38.870  0.00  0.00    +0.000 OA
ATOM      3  N   UNL     1      29.887  65.283  40.765  0.00  0.00    +0.000 N 
ATOM      4  N   UNL     1      31.125  64.346  43.049  0.00  0.00    +0.000 N 
ATOM      5  N   UNL     1      29.853  62.582  43.266  0.00  0.00    +0.000 NA
ATOM      6  N   UNL     1      30.916  62.471  44.134  0.00  0.00    +0.000 NA
ATOM      7  C   UNL     1      30.516  66.264  41.664  0.00  0.00    +0.000 C 
ATOM      8  C   UNL     1      31.615  65.593  42.497  0.00  0.00    +0.000 C 
ATOM      9  C   UNL     1      29.164  64.227  41.479  0.00  0.00    +0.000 C 
ATOM     10  C   UNL     1      30.007  63.702  42.590  0.00  0.00    +0.000 A 
ATOM     11  C   UNL     1      29.893  65.471  39.384  0.00  0.00    +0.000 C 
ATOM     12  C   UNL     1      31.697  63.520  43.979  0.00  0.00    +0.000 A 
BRANCH  12  13
ATOM     13  C   UNL     1      33.002  63.754  44.650  0.00  0.00    +0.000 C 
ATOM     14  C   UNL     1      34.146  63.073  43.918  0.00  0.00    +0.000 C 
ENDBRANCH  12  13
ENDBRANCH   1  11
BRANCH   1  15
ATOM     15  C   UNL     1      29.749  63.536  37.545  0.00  0.00    +0.000 C 
BRANCH  15  16
ATOM     16  N   UNL     1      31.209  63.694  37.762  0.00  0.00    +0.000 NA
ATOM     17  H   UNL     1      31.725  63.454  36.915  0.00  0.00    +0.000 HD
ATOM     18  H   UNL     1      31.426  64.674  37.953  0.00  0.00    +0.000 HD
ENDBRANCH  15  16
BRANCH  15  19
ATOM     19  C   UNL     1      29.440  63.797  36.051  0.00  0.00    +0.000 C 
BRANCH  19  22
ATOM     20  F   UNL     1      31.500  65.761  35.531  0.00  0.00    +0.000 F 
ATOM     21  F   UNL     1      26.346  67.364  34.776  0.00  0.00    +0.000 F 
ATOM     22  C   UNL     1      29.187  65.235  35.625  0.00  0.00    +0.000 A 
ATOM     23  C   UNL     1      30.224  66.141  35.370  0.00  0.00    +0.000 A 
ATOM     24  C   UNL     1      27.869  65.678  35.419  0.00  0.00    +0.000 A 
ATOM     25  C   UNL     1      27.611  66.975  34.978  0.00  0.00    +0.000 A 
ATOM     26  C   UNL     1      29.964  67.442  34.937  0.00  0.00    +0.000 A 
ATOM     27  C   UNL     1      28.647  67.865  34.731  0.00  0.00    +0.000 A 
ENDBRANCH  19  22
ENDBRANCH  15  19
ENDBRANCH   1  15
TORSDOF 6
ENDMDL
MODEL 3
REMARK VINA RESULT:      -7.5     12.550     14.722
REMARK  Name = 20628249
REMARK  7 active torsions:
REMARK  status: ('A' for Active; 'I' for Inactive)
REMARK    1  A    between atoms: N_8  and  C_14
REMARK    2  A    between atoms: C_13  and  C_14
REMARK    3  A    between atoms: C_13  and  C_15
REMARK    4  A    between atoms: C_14  and  C_17
REMARK    5  A    between atoms: C_16  and  C_18
REMARK    6  A    between atoms: C_17  and  C_19
REMARK    7  A    between atoms: C_18  and  C_20
REMARK                            x       y       z     vdW  Elec       q    Type
REMARK                         _______ _______ _______ _____ _____    ______ ____
ROOT
ATOM      1  C   UNL     1      55.852  71.474  38.551  0.00  0.00    +0.000 C 
ENDROOT
BRANCH   1  11
ATOM      2  O   UNL     1      54.750  71.757  36.431  0.00  0.00    +0.000 OA
ATOM      3  N   UNL     1      53.455  70.827  38.071  0.00  0.00    +0.000 N 
ATOM      4  N   UNL     1      50.883  71.137  39.028  0.00  0.00    +0.000 N 
ATOM      5  N   UNL     1      51.383  70.701  41.110  0.00  0.00    +0.000 NA
ATOM      6  N   UNL     1      50.100  71.198  41.058  0.00  0.00    +0.000 NA
ATOM      7  C   UNL     1      52.337  70.541  37.157  0.00  0.00    +0.000 C 
ATOM      8  C   UNL     1      51.081  71.300  37.601  0.00  0.00    +0.000 C 
ATOM      9  C   UNL     1      53.231  70.330  39.430  0.00  0.00    +0.000 C 
ATOM     10  C   UNL     1      51.860  70.700  39.883  0.00  0.00    +0.000 A 
ATOM     11  C   UNL     1      54.639  71.391  37.597  0.00  0.00    +0.000 C 
ATOM     12  C   UNL     1      49.813  71.489  39.806  0.00  0.00    +0.000 A 
BRANCH  12  13
ATOM     13  C   UNL     1      48.569  72.138  39.314  0.00  0.00    +0.000 C 
ATOM     14  C   UNL     1      48.635  73.651  39.431  0.00  0.00    +0.000 C 
ENDBRANCH  12  13
ENDBRANCH   1  11
BRANCH   1  15
ATOM     15  C   UNL     1      57.277  71.641  37.958  0.00  0.00    +0.000 C 
BRANCH  15  16
ATOM     16  N   UNL     1      57.160  71.437  36.493  0.00  0.00    +0.000 NA
ATOM     17  H   UNL     1      57.617  72.196  35.987  0.00  0.00    +0.000 HD
ATOM     18  H   UNL     1      57.654  70.585  36.221  0.00  0.00    +0.000 HD
ENDBRANCH  15  16
BRANCH  15  19
ATOM     19  C   UNL     1      58.299  70.625  38.519  0.00  0.00    +0.000 C 
BRANCH  19  22
ATOM     20  F   UNL     1      61.124  70.024  38.688  0.00  0.00    +0.000 F 
ATOM     21  F   UNL     1      59.061  73.208  42.601  0.00  0.00    +0.000 F 
ATOM     22  C   UNL     1      59.227  71.097  39.628  0.00  0.00    +0.000 A 
ATOM     23  C   UNL     1      60.593  70.790  39.652  0.00  0.00    +0.000 A 
ATOM     24  C   UNL     1      58.726  71.922  40.650  0.00  0.00    +0.000 A 
ATOM     25  C   UNL     1      59.564  72.412  41.649  0.00  0.00    +0.000 A 
ATOM     26  C   UNL     1      61.430  71.274  40.658  0.00  0.00    +0.000 A 
ATOM     27  C   UNL     1      60.916  72.099  41.664  0.00  0.00    +0.000 A 
ENDBRANCH  19  22
ENDBRANCH  15  19
ENDBRANCH   1  15
TORSDOF 6
ENDMDL
MODEL 4
REMARK VINA RESULT:      -7.4     26.196     27.931
REMARK  Name = 20628249
REMARK  7 active torsions:
REMARK  status: ('A' for Active; 'I' for Inactive)
REMARK    1  A    between atoms: N_8  and  C_14
REMARK    2  A    between atoms: C_13  and  C_14
REMARK    3  A    between atoms: C_13  and  C_15
REMARK    4  A    between atoms: C_14  and  C_17
REMARK    5  A    between atoms: C_16  and  C_18
REMARK    6  A    between atoms: C_17  and  C_19
REMARK    7  A    between atoms: C_18  and  C_20
REMARK                            x       y       z     vdW  Elec       q    Type
REMARK                         _______ _______ _______ _____ _____    ______ ____
ROOT
ATOM      1  C   UNL     1      42.572  51.059  35.583  0.00  0.00    +0.000 C 
ENDROOT
BRANCH   1  11
ATOM      2  O   UNL     1      43.074  51.433  33.260  0.00  0.00    +0.000 OA
ATOM      3  N   UNL     1      44.685  52.147  34.717  0.00  0.00    +0.000 N 
ATOM      4  N   UNL     1      47.437  52.012  34.906  0.00  0.00    +0.000 N 
ATOM      5  N   UNL     1      47.489  51.885  37.087  0.00  0.00    +0.000 NA
ATOM      6  N   UNL     1      48.746  51.608  36.597  0.00  0.00    +0.000 NA
ATOM      7  C   UNL     1      45.484  52.795  33.664  0.00  0.00    +0.000 C 
ATOM      8  C   UNL     1      46.872  52.150  33.578  0.00  0.00    +0.000 C 
ATOM      9  C   UNL     1      45.229  52.349  36.062  0.00  0.00    +0.000 C 
ATOM     10  C   UNL     1      46.697  52.093  36.056  0.00  0.00    +0.000 A 
ATOM     11  C   UNL     1      43.467  51.536  34.418  0.00  0.00    +0.000 C 
ATOM     12  C   UNL     1      48.704  51.655  35.281  0.00  0.00    +0.000 A 
BRANCH  12  13
ATOM     13  C   UNL     1      49.816  51.327  34.351  0.00  0.00    +0.000 C 
ATOM     14  C   UNL     1      50.036  49.827  34.238  0.00  0.00    +0.000 C 
ENDBRANCH  12  13
ENDBRANCH   1  11
BRANCH   1  15
ATOM     15  C   UNL     1      41.044  51.326  35.527  0.00  0.00    +0.000 C 
BRANCH  15  16
ATOM     16  N   UNL     1      40.863  52.679  34.945  0.00  0.00    +0.000 NA
ATOM     17  H   UNL     1      40.818  52.629  33.927  0.00  0.00    +0.000 HD
ATOM     18  H   UNL     1      39.967  53.068  35.245  0.00  0.00    +0.000 HD
ENDBRANCH  15  16
BRANCH  15  19
ATOM     19  C   UNL     1      40.362  51.289  36.916  0.00  0.00    +0.000 C 
BRANCH  19  22
ATOM     20  F   UNL     1      38.479  51.924  39.018  0.00  0.00    +0.000 F 
ATOM     21  F   UNL     1      36.646  48.786  34.955  0.00  0.00    +0.000 F 
ATOM     22  C   UNL     1      38.930  50.784  36.985  0.00  0.00    +0.000 A 
ATOM     23  C   UNL     1      38.053  51.137  38.019  0.00  0.00    +0.000 A 
ATOM     24  C   UNL     1      38.426  49.976  35.951  0.00  0.00    +0.000 A 
ATOM     25  C   UNL     1      37.101  49.543  35.962  0.00  0.00    +0.000 A 
ATOM     26  C   UNL     1      36.730  50.695  38.034  0.00  0.00    +0.000 A 
ATOM     27  C   UNL     1      36.243  49.896  36.994  0.00  0.00    +0.000 A 
ENDBRANCH  19  22
ENDBRANCH  15  19
ENDBRANCH   1  15
TORSDOF 6
ENDMDL
MODEL 5
REMARK VINA RESULT:      -7.4     25.302     27.376
REMARK  Name = 20628249
REMARK  7 active torsions:
REMARK  status: ('A' for Active; 'I' for Inactive)
REMARK    1  A    between atoms: N_8  and  C_14
REMARK    2  A    between atoms: C_13  and  C_14
REMARK    3  A    between atoms: C_13  and  C_15
REMARK    4  A    between atoms: C_14  and  C_17
REMARK    5  A    between atoms: C_16  and  C_18
REMARK    6  A    between atoms: C_17  and  C_19
REMARK    7  A    between atoms: C_18  and  C_20
REMARK                            x       y       z     vdW  Elec       q    Type
REMARK                         _______ _______ _______ _____ _____    ______ ____
ROOT
ATOM      1  C   UNL     1      48.669  52.958  36.495  0.00  0.00    +0.000 C 
ENDROOT
BRANCH   1  11
ATOM      2  O   UNL     1      49.473  53.205  34.241  0.00  0.00    +0.000 OA
ATOM      3  N   UNL     1      50.922  52.161  35.669  0.00  0.00    +0.000 N 
ATOM      4  N   UNL     1      52.557  49.936  35.613  0.00  0.00    +0.000 N 
ATOM      5  N   UNL     1      52.306  49.441  37.726  0.00  0.00    +0.000 NA
ATOM      6  N   UNL     1      52.937  48.390  37.097  0.00  0.00    +0.000 NA
ATOM      7  C   UNL     1      52.018  52.132  34.687  0.00  0.00    +0.000 C 
ATOM      8  C   UNL     1      52.416  50.683  34.379  0.00  0.00    +0.000 C 
ATOM      9  C   UNL     1      51.309  51.637  36.981  0.00  0.00    +0.000 C 
ATOM     10  C   UNL     1      52.050  50.354  36.814  0.00  0.00    +0.000 A 
ATOM     11  C   UNL     1      49.704  52.768  35.365  0.00  0.00    +0.000 C 
ATOM     12  C   UNL     1      53.059  48.679  35.818  0.00  0.00    +0.000 A 
BRANCH  12  13
ATOM     13  C   UNL     1      53.596  47.784  34.760  0.00  0.00    +0.000 C 
ATOM     14  C   UNL     1      55.059  47.444  34.994  0.00  0.00    +0.000 C 
ENDBRANCH  12  13
ENDBRANCH   1  11
BRANCH   1  15
ATOM     15  C   UNL     1      47.156  52.982  36.146  0.00  0.00    +0.000 C 
BRANCH  15  16
ATOM     16  N   UNL     1      46.491  53.818  37.176  0.00  0.00    +0.000 NA
ATOM     17  H   UNL     1      45.829  54.462  36.743  0.00  0.00    +0.000 HD
ATOM     18  H   UNL     1      45.935  53.225  37.797  0.00  0.00    +0.000 HD
ENDBRANCH  15  16
BRANCH  15  19
ATOM     19  C   UNL     1      46.503  51.580  36.148  0.00  0.00    +0.000 C 
BRANCH  19  22
ATOM     20  F   UNL     1      45.552  52.089  33.463  0.00  0.00    +0.000 F 
ATOM     21  F   UNL     1      41.829  50.514  37.119  0.00  0.00    +0.000 F 
ATOM     22  C   UNL     1      45.052  51.478  35.702  0.00  0.00    +0.000 A 
ATOM     23  C   UNL     1      44.649  51.719  34.383  0.00  0.00    +0.000 A 
ATOM     24  C   UNL     1      44.069  51.071  36.620  0.00  0.00    +0.000 A 
ATOM     25  C   UNL     1      42.741  50.918  36.226  0.00  0.00    +0.000 A 
ATOM     26  C   UNL     1      43.318  51.574  33.991  0.00  0.00    +0.000 A 
ATOM     27  C   UNL     1      42.353  51.163  34.916  0.00  0.00    +0.000 A 
ENDBRANCH  19  22
ENDBRANCH  15  19
ENDBRANCH   1  15
TORSDOF 6
ENDMDL
MODEL 6
REMARK VINA RESULT:      -7.2     26.590     28.380
REMARK  Name = 20628249
REMARK  7 active torsions:
REMARK  status: ('A' for Active; 'I' for Inactive)
REMARK    1  A    between atoms: N_8  and  C_14
REMARK    2  A    between atoms: C_13  and  C_14
REMARK    3  A    between atoms: C_13  and  C_15
REMARK    4  A    between atoms: C_14  and  C_17
REMARK    5  A    between atoms: C_16  and  C_18
REMARK    6  A    between atoms: C_17  and  C_19
REMARK    7  A    between atoms: C_18  and  C_20
REMARK                            x       y       z     vdW  Elec       q    Type
REMARK                         _______ _______ _______ _____ _____    ______ ____
ROOT
ATOM      1  C   UNL     1      49.431  51.086  34.611  0.00  0.00    +0.000 C 
ENDROOT
BRANCH   1  11
ATOM      2  O   UNL     1      48.913  50.003  36.696  0.00  0.00    +0.000 OA
ATOM      3  N   UNL     1      47.339  51.496  35.971  0.00  0.00    +0.000 N 
ATOM      4  N   UNL     1      44.587  51.582  35.760  0.00  0.00    +0.000 N 
ATOM      5  N   UNL     1      44.557  52.791  33.940  0.00  0.00    +0.000 NA
ATOM      6  N   UNL     1      43.287  52.312  34.175  0.00  0.00    +0.000 NA
ATOM      7  C   UNL     1      46.546  51.405  37.209  0.00  0.00    +0.000 C 
ATOM      8  C   UNL     1      45.140  50.878  36.900  0.00  0.00    +0.000 C 
ATOM      9  C   UNL     1      46.816  52.481  35.022  0.00  0.00    +0.000 C 
ATOM     10  C   UNL     1      45.342  52.316  34.884  0.00  0.00    +0.000 A 
ATOM     11  C   UNL     1      48.536  50.793  35.835  0.00  0.00    +0.000 C 
ATOM     12  C   UNL     1      43.315  51.558  35.254  0.00  0.00    +0.000 A 
BRANCH  12  13
ATOM     13  C   UNL     1      42.183  50.770  35.809  0.00  0.00    +0.000 C 
ATOM     14  C   UNL     1      41.272  51.620  36.678  0.00  0.00    +0.000 C 
ENDBRANCH  12  13
ENDBRANCH   1  11
BRANCH   1  15
ATOM     15  C   UNL     1      50.841  51.698  34.828  0.00  0.00    +0.000 C 
BRANCH  15  16
ATOM     16  N   UNL     1      50.706  53.164  34.647  0.00  0.00    +0.000 NA
ATOM     17  H   UNL     1      51.560  53.642  34.936  0.00  0.00    +0.000 HD
ATOM     18  H   UNL     1      50.588  53.382  33.656  0.00  0.00    +0.000 HD
ENDBRANCH  15  16
BRANCH  15  19
ATOM     19  C   UNL     1      51.899  51.172  33.828  0.00  0.00    +0.000 C 
BRANCH  19  22
ATOM     20  F   UNL     1      51.196  48.371  33.663  0.00  0.00    +0.000 F 
ATOM     21  F   UNL     1      56.144  49.538  35.628  0.00  0.00    +0.000 F 
ATOM     22  C   UNL     1      52.785  50.022  34.281  0.00  0.00    +0.000 A 
ATOM     23  C   UNL     1      52.401  48.680  34.162  0.00  0.00    +0.000 A 
ATOM     24  C   UNL     1      54.068  50.290  34.789  0.00  0.00    +0.000 A 
ATOM     25  C   UNL     1      54.922  49.253  35.161  0.00  0.00    +0.000 A 
ATOM     26  C   UNL     1      53.253  47.643  34.543  0.00  0.00    +0.000 A 
ATOM     27  C   UNL     1      54.528  47.927  35.042  0.00  0.00    +0.000 A 
ENDBRANCH  19  22
ENDBRANCH  15  19
ENDBRANCH   1  15
TORSDOF 6
ENDMDL
MODEL 7
REMARK VINA RESULT:      -6.6     26.409     27.770
REMARK  Name = 20628249
REMARK  7 active torsions:
REMARK  status: ('A' for Active; 'I' for Inactive)
REMARK    1  A    between atoms: N_8  and  C_14
REMARK    2  A    between atoms: C_13  and  C_14
REMARK    3  A    between atoms: C_13  and  C_15
REMARK    4  A    between atoms: C_14  and  C_17
REMARK    5  A    between atoms: C_16  and  C_18
REMARK    6  A    between atoms: C_17  and  C_19
REMARK    7  A    between atoms: C_18  and  C_20
REMARK                            x       y       z     vdW  Elec       q    Type
REMARK                         _______ _______ _______ _____ _____    ______ ____
ROOT
ATOM      1  C   UNL     1      44.659  51.538  35.864  0.00  0.00    +0.000 C 
ENDROOT
BRANCH   1  11
ATOM      2  O   UNL     1      45.470  52.307  33.733  0.00  0.00    +0.000 OA
ATOM      3  N   UNL     1      47.100  51.776  35.247  0.00  0.00    +0.000 N 
ATOM      4  N   UNL     1      49.488  50.388  35.235  0.00  0.00    +0.000 N 
ATOM      5  N   UNL     1      49.293  49.623  37.272  0.00  0.00    +0.000 NA
ATOM      6  N   UNL     1      50.338  48.974  36.654  0.00  0.00    +0.000 NA
ATOM      7  C   UNL     1      48.189  52.278  34.392  0.00  0.00    +0.000 C 
ATOM      8  C   UNL     1      49.156  51.141  34.041  0.00  0.00    +0.000 C 
ATOM      9  C   UNL     1      47.561  51.315  36.558  0.00  0.00    +0.000 C 
ATOM     10  C   UNL     1      48.764  50.450  36.396  0.00  0.00    +0.000 A 
ATOM     11  C   UNL     1      45.769  51.884  34.847  0.00  0.00    +0.000 C 
ATOM     12  C   UNL     1      50.433  49.415  35.416  0.00  0.00    +0.000 A 
BRANCH  12  13
ATOM     13  C   UNL     1      51.364  48.914  34.371  0.00  0.00    +0.000 C 
ATOM     14  C   UNL     1      52.652  49.719  34.326  0.00  0.00    +0.000 C 
ENDBRANCH  12  13
ENDBRANCH   1  11
BRANCH   1  15
ATOM     15  C   UNL     1      43.201  51.992  35.585  0.00  0.00    +0.000 C 
BRANCH  15  16
ATOM     16  N   UNL     1      43.270  53.398  35.116  0.00  0.00    +0.000 NA
ATOM     17  H   UNL     1      42.349  53.724  34.823  0.00  0.00    +0.000 HD
ATOM     18  H   UNL     1      43.549  54.007  35.887  0.00  0.00    +0.000 HD
ENDBRANCH  15  16
BRANCH  15  19
ATOM     19  C   UNL     1      42.289  51.931  36.834  0.00  0.00    +0.000 C 
BRANCH  19  22
ATOM     20  F   UNL     1      43.577  51.271  39.339  0.00  0.00    +0.000 F 
ATOM     21  F   UNL     1      40.369  47.445  37.153  0.00  0.00    +0.000 F 
ATOM     22  C   UNL     1      42.166  50.597  37.553  0.00  0.00    +0.000 A 
ATOM     23  C   UNL     1      42.799  50.336  38.774  0.00  0.00    +0.000 A 
ATOM     24  C   UNL     1      41.343  49.591  37.016  0.00  0.00    +0.000 A 
ATOM     25  C   UNL     1      41.170  48.378  37.681  0.00  0.00    +0.000 A 
ATOM     26  C   UNL     1      42.632  49.118  39.435  0.00  0.00    +0.000 A 
ATOM     27  C   UNL     1      41.806  48.130  38.890  0.00  0.00    +0.000 A 
ENDBRANCH  19  22
ENDBRANCH  15  19
ENDBRANCH   1  15
TORSDOF 6
ENDMDL
MODEL 8
REMARK VINA RESULT:      -6.6     20.258     22.321
REMARK  Name = 20628249
REMARK  7 active torsions:
REMARK  status: ('A' for Active; 'I' for Inactive)
REMARK    1  A    between atoms: N_8  and  C_14
REMARK    2  A    between atoms: C_13  and  C_14
REMARK    3  A    between atoms: C_13  and  C_15
REMARK    4  A    between atoms: C_14  and  C_17
REMARK    5  A    between atoms: C_16  and  C_18
REMARK    6  A    between atoms: C_17  and  C_19
REMARK    7  A    between atoms: C_18  and  C_20
REMARK                            x       y       z     vdW  Elec       q    Type
REMARK                         _______ _______ _______ _____ _____    ______ ____
ROOT
ATOM      1  C   UNL     1      31.742  65.758  39.883  0.00  0.00    +0.000 C 
ENDROOT
BRANCH   1  11
ATOM      2  O   UNL     1      29.928  66.709  41.145  0.00  0.00    +0.000 OA
ATOM      3  N   UNL     1      31.101  65.074  42.232  0.00  0.00    +0.000 N 
ATOM      4  N   UNL     1      32.161  64.689  44.753  0.00  0.00    +0.000 N 
ATOM      5  N   UNL     1      33.893  63.543  44.076  0.00  0.00    +0.000 NA
ATOM      6  N   UNL     1      34.069  63.869  45.402  0.00  0.00    +0.000 NA
ATOM      7  C   UNL     1      30.173  65.037  43.375  0.00  0.00    +0.000 C 
ATOM      8  C   UNL     1      30.908  65.414  44.667  0.00  0.00    +0.000 C 
ATOM      9  C   UNL     1      32.162  64.068  42.316  0.00  0.00    +0.000 C 
ATOM     10  C   UNL     1      32.754  64.072  43.684  0.00  0.00    +0.000 A 
ATOM     11  C   UNL     1      30.860  65.910  41.142  0.00  0.00    +0.000 C 
ATOM     12  C   UNL     1      33.038  64.587  45.798  0.00  0.00    +0.000 A 
BRANCH  12  13
ATOM     13  C   UNL     1      32.868  65.226  47.130  0.00  0.00    +0.000 C 
ATOM     14  C   UNL     1      33.709  66.485  47.265  0.00  0.00    +0.000 C 
ENDBRANCH  12  13
ENDBRANCH   1  11
BRANCH   1  15
ATOM     15  C   UNL     1      31.121  65.180  38.583  0.00  0.00    +0.000 C 
BRANCH  15  16
ATOM     16  N   UNL     1      31.838  63.915  38.290  0.00  0.00    +0.000 NA
ATOM     17  H   UNL     1      31.485  63.493  37.430  0.00  0.00    +0.000 HD
ATOM     18  H   UNL     1      32.827  64.108  38.119  0.00  0.00    +0.000 HD
ENDBRANCH  15  16
BRANCH  15  19
ATOM     19  C   UNL     1      31.261  66.122  37.364  0.00  0.00    +0.000 C 
BRANCH  19  22
ATOM     20  F   UNL     1      31.501  67.314  34.738  0.00  0.00    +0.000 F 
ATOM     21  F   UNL     1      27.089  64.244  35.636  0.00  0.00    +0.000 F 
ATOM     22  C   UNL     1      30.238  65.985  36.246  0.00  0.00    +0.000 A 
ATOM     23  C   UNL     1      30.413  66.570  34.986  0.00  0.00    +0.000 A 
ATOM     24  C   UNL     1      29.091  65.198  36.445  0.00  0.00    +0.000 A 
ATOM     25  C   UNL     1      28.164  65.012  35.422  0.00  0.00    +0.000 A 
ATOM     26  C   UNL     1      29.480  66.391  33.964  0.00  0.00    +0.000 A 
ATOM     27  C   UNL     1      28.347  65.600  34.178  0.00  0.00    +0.000 A 
ENDBRANCH  19  22
ENDBRANCH  15  19
ENDBRANCH   1  15
TORSDOF 6
ENDMDL
MODEL 9
REMARK VINA RESULT:      -6.3     21.096     23.566
REMARK  Name = 20628249
REMARK  7 active torsions:
REMARK  status: ('A' for Active; 'I' for Inactive)
REMARK    1  A    between atoms: N_8  and  C_14
REMARK    2  A    between atoms: C_13  and  C_14
REMARK    3  A    between atoms: C_13  and  C_15
REMARK    4  A    between atoms: C_14  and  C_17
REMARK    5  A    between atoms: C_16  and  C_18
REMARK    6  A    between atoms: C_17  and  C_19
REMARK    7  A    between atoms: C_18  and  C_20
REMARK                            x       y       z     vdW  Elec       q    Type
REMARK                         _______ _______ _______ _____ _____    ______ ____
ROOT
ATOM      1  C   UNL     1      31.663  65.519  39.952  0.00  0.00    +0.000 C 
ENDROOT
BRANCH   1  11
ATOM      2  O   UNL     1      32.136  64.192  41.903  0.00  0.00    +0.000 OA
ATOM      3  N   UNL     1      31.243  66.253  42.336  0.00  0.00    +0.000 N 
ATOM      4  N   UNL     1      29.284  67.297  43.978  0.00  0.00    +0.000 N 
ATOM      5  N   UNL     1      28.654  68.856  42.583  0.00  0.00    +0.000 NA
ATOM      6  N   UNL     1      27.739  68.785  43.610  0.00  0.00    +0.000 NA
ATOM      7  C   UNL     1      31.422  66.129  43.792  0.00  0.00    +0.000 C 
ATOM      8  C   UNL     1      30.064  66.192  44.500  0.00  0.00    +0.000 C 
ATOM      9  C   UNL     1      30.716  67.557  41.927  0.00  0.00    +0.000 C 
ATOM     10  C   UNL     1      29.565  67.931  42.797  0.00  0.00    +0.000 A 
ATOM     11  C   UNL     1      31.681  65.249  41.473  0.00  0.00    +0.000 C 
ATOM     12  C   UNL     1      28.105  67.823  44.432  0.00  0.00    +0.000 A 
BRANCH  12  13
ATOM     13  C   UNL     1      27.351  67.345  45.621  0.00  0.00    +0.000 C 
ATOM     14  C   UNL     1      26.096  66.584  45.227  0.00  0.00    +0.000 C 
ENDBRANCH  12  13
ENDBRANCH   1  11
BRANCH   1  15
ATOM     15  C   UNL     1      30.433  65.077  39.115  0.00  0.00    +0.000 C 
BRANCH  15  16
ATOM     16  N   UNL     1      29.772  63.981  39.866  0.00  0.00    +0.000 NA
ATOM     17  H   UNL     1      28.961  63.633  39.354  0.00  0.00    +0.000 HD
ATOM     18  H   UNL     1      30.409  63.187  39.952  0.00  0.00    +0.000 HD
ENDBRANCH  15  16
BRANCH  15  19
ATOM     19  C   UNL     1      30.804  64.556  37.706  0.00  0.00    +0.000 C 
BRANCH  19  22
ATOM     20  F   UNL     1      31.790  66.469  35.772  0.00  0.00    +0.000 F 
ATOM     21  F   UNL     1      26.740  64.575  34.985  0.00  0.00    +0.000 F 
ATOM     22  C   UNL     1      30.009  65.091  36.525  0.00  0.00    +0.000 A 
ATOM     23  C   UNL     1      30.542  66.005  35.607  0.00  0.00    +0.000 A 
ATOM     24  C   UNL     1      28.706  64.619  36.293  0.00  0.00    +0.000 A 
ATOM     25  C   UNL     1      27.974  65.053  35.188  0.00  0.00    +0.000 A 
ATOM     26  C   UNL     1      29.806  66.445  34.507  0.00  0.00    +0.000 A 
ATOM     27  C   UNL     1      28.512  65.962  34.288  0.00  0.00    +0.000 A 
ENDBRANCH  19  22
ENDBRANCH  15  19
ENDBRANCH   1  15
TORSDOF 6
ENDMDL
