MODEL 1
REMARK VINA RESULT:      -9.0      0.000      0.000
REMARK  Name = 10254918
REMARK  8 active torsions:
REMARK  status: ('A' for Active; 'I' for Inactive)
REMARK    1  A    between atoms: N_11  and  C_20
REMARK    2  A    between atoms: N_13  and  C_23
REMARK    3  A    between atoms: C_16  and  C_20
REMARK    4  A    between atoms: C_21  and  C_22
REMARK    5  A    between atoms: C_22  and  C_23
REMARK    6  A    between atoms: C_23  and  C_24
REMARK    7  A    between atoms: C_24  and  C_26
REMARK    8  A    between atoms: C_25  and  C_27
REMARK                            x       y       z     vdW  Elec       q    Type
REMARK                         _______ _______ _______ _____ _____    ______ ____
ROOT
ATOM      1  O   UNL     1      37.139  50.560  42.606  0.00  0.00    +0.000 OA
ATOM      2  N   UNL     1      35.734  52.287  43.159  0.00  0.00    +0.000 N 
ATOM      3  N   UNL     1      34.627  54.106  44.917  0.00  0.00    +0.000 N 
ATOM      4  N   UNL     1      34.613  52.862  46.696  0.00  0.00    +0.000 NA
ATOM      5  N   UNL     1      34.254  54.967  45.867  0.00  0.00    +0.000 NA
ATOM      6  C   UNL     1      35.433  51.745  44.531  0.00  0.00    +0.000 C 
ATOM      7  C   UNL     1      34.759  53.280  42.666  0.00  0.00    +0.000 C 
ATOM      8  C   UNL     1      34.879  52.859  45.403  0.00  0.00    +0.000 A 
ATOM      9  C   UNL     1      34.765  54.518  43.543  0.00  0.00    +0.000 C 
ATOM     10  C   UNL     1      36.588  51.615  42.291  0.00  0.00    +0.000 C 
ATOM     11  C   UNL     1      34.329  54.200  46.976  0.00  0.00    +0.000 A 
ENDROOT
BRANCH  11  15
ATOM     12  F   UNL     1      34.565  53.908  49.349  0.00  0.00    +0.000 F 
ATOM     13  F   UNL     1      32.835  55.031  48.643  0.00  0.00    +0.000 F 
ATOM     14  F   UNL     1      34.825  55.924  48.558  0.00  0.00    +0.000 F 
ATOM     15  C   UNL     1      34.142  54.756  48.371  0.00  0.00    +0.000 C 
ENDBRANCH  11  15
BRANCH   6  16
ATOM     16  C   UNL     1      36.544  50.976  45.286  0.00  0.00    +0.000 C 
BRANCH  16  17
ATOM     17  N   UNL     1      36.158  49.692  45.825  0.00  0.00    +0.000 N 
ATOM     18  N   UNL     1      35.824  49.553  47.120  0.00  0.00    +0.000 NA
ATOM     19  N   UNL     1      35.478  47.619  45.971  0.00  0.00    +0.000 NA
ATOM     20  C   UNL     1      35.934  48.535  45.144  0.00  0.00    +0.000 A 
ATOM     21  C   UNL     1      35.406  48.288  47.158  0.00  0.00    +0.000 A 
ENDBRANCH  16  17
ENDBRANCH   6  16
BRANCH  10  22
ATOM     22  C   UNL     1      36.888  52.222  40.925  0.00  0.00    +0.000 C 
BRANCH  22  23
ATOM     23  C   UNL     1      37.169  51.170  39.837  0.00  0.00    +0.000 C 
BRANCH  23  24
ATOM     24  N   UNL     1      38.590  50.789  39.922  0.00  0.00    +0.000 NA
ATOM     25  H   UNL     1      38.730  50.122  40.682  0.00  0.00    +0.000 HD
ATOM     26  H   UNL     1      39.147  51.606  40.177  0.00  0.00    +0.000 HD
ENDBRANCH  23  24
BRANCH  23  27
ATOM     27  C   UNL     1      36.771  51.680  38.431  0.00  0.00    +0.000 C 
BRANCH  27  31
ATOM     28  F   UNL     1      38.616  50.375  36.685  0.00  0.00    +0.000 F 
ATOM     29  F   UNL     1      33.434  48.720  36.422  0.00  0.00    +0.000 F 
ATOM     30  F   UNL     1      35.330  47.589  34.802  0.00  0.00    +0.000 F 
ATOM     31  C   UNL     1      36.379  50.598  37.448  0.00  0.00    +0.000 A 
ATOM     32  C   UNL     1      37.334  49.986  36.623  0.00  0.00    +0.000 A 
ATOM     33  C   UNL     1      35.048  50.148  37.376  0.00  0.00    +0.000 A 
ATOM     34  C   UNL     1      34.708  49.133  36.482  0.00  0.00    +0.000 A 
ATOM     35  C   UNL     1      36.991  48.977  35.727  0.00  0.00    +0.000 A 
ATOM     36  C   UNL     1      35.670  48.559  35.665  0.00  0.00    +0.000 A 
ENDBRANCH  27  31
ENDBRANCH  23  27
ENDBRANCH  22  23
ENDBRANCH  10  22
TORSDOF 8
ENDMDL
MODEL 2
REMARK VINA RESULT:      -8.4     25.849     28.207
REMARK  Name = 10254918
REMARK  8 active torsions:
REMARK  status: ('A' for Active; 'I' for Inactive)
REMARK    1  A    between atoms: N_11  and  C_20
REMARK    2  A    between atoms: N_13  and  C_23
REMARK    3  A    between atoms: C_16  and  C_20
REMARK    4  A    between atoms: C_21  and  C_22
REMARK    5  A    between atoms: C_22  and  C_23
REMARK    6  A    between atoms: C_23  and  C_24
REMARK    7  A    between atoms: C_24  and  C_26
REMARK    8  A    between atoms: C_25  and  C_27
REMARK                            x       y       z     vdW  Elec       q    Type
REMARK                         _______ _______ _______ _____ _____    ______ ____
ROOT
ATOM      1  O   UNL     1      52.928  70.754  39.877  0.00  0.00    +0.000 OA
ATOM      2  N   UNL     1      54.618  70.946  38.338  0.00  0.00    +0.000 N 
ATOM      3  N   UNL     1      57.193  70.528  37.429  0.00  0.00    +0.000 N 
ATOM      4  N   UNL     1      58.229  70.672  39.330  0.00  0.00    +0.000 NA
ATOM      5  N   UNL     1      58.438  70.173  37.105  0.00  0.00    +0.000 NA
ATOM      6  C   UNL     1      55.695  71.098  39.380  0.00  0.00    +0.000 C 
ATOM      7  C   UNL     1      55.002  71.410  36.991  0.00  0.00    +0.000 C 
ATOM      8  C   UNL     1      57.047  70.792  38.758  0.00  0.00    +0.000 A 
ATOM      9  C   UNL     1      56.144  70.576  36.442  0.00  0.00    +0.000 C 
ATOM     10  C   UNL     1      53.285  70.786  38.699  0.00  0.00    +0.000 C 
ATOM     11  C   UNL     1      59.049  70.189  38.309  0.00  0.00    +0.000 A 
ENDROOT
BRANCH  11  15
ATOM     12  F   UNL     1      60.569  68.692  39.415  0.00  0.00    +0.000 F 
ATOM     13  F   UNL     1      61.287  70.702  38.966  0.00  0.00    +0.000 F 
ATOM     14  F   UNL     1      61.032  69.249  37.357  0.00  0.00    +0.000 F 
ATOM     15  C   UNL     1      60.469  69.708  38.514  0.00  0.00    +0.000 C 
ENDBRANCH  11  15
BRANCH   6  16
ATOM     16  C   UNL     1      55.541  70.344  40.723  0.00  0.00    +0.000 C 
BRANCH  16  17
ATOM     17  N   UNL     1      55.701  71.147  41.913  0.00  0.00    +0.000 N 
ATOM     18  N   UNL     1      56.877  71.203  42.562  0.00  0.00    +0.000 NA
ATOM     19  N   UNL     1      55.376  72.660  43.458  0.00  0.00    +0.000 NA
ATOM     20  C   UNL     1      54.816  72.032  42.447  0.00  0.00    +0.000 A 
ATOM     21  C   UNL     1      56.637  72.140  43.479  0.00  0.00    +0.000 A 
ENDBRANCH  16  17
ENDBRANCH   6  16
BRANCH  10  22
ATOM     22  C   UNL     1      52.236  70.603  37.608  0.00  0.00    +0.000 C 
BRANCH  22  23
ATOM     23  C   UNL     1      51.036  69.749  38.052  0.00  0.00    +0.000 C 
BRANCH  23  24
ATOM     24  N   UNL     1      51.175  68.411  37.451  0.00  0.00    +0.000 NA
ATOM     25  H   UNL     1      51.939  67.903  37.898  0.00  0.00    +0.000 HD
ATOM     26  H   UNL     1      51.453  68.504  36.472  0.00  0.00    +0.000 HD
ENDBRANCH  23  24
BRANCH  23  27
ATOM     27  C   UNL     1      49.689  70.424  37.697  0.00  0.00    +0.000 C 
BRANCH  27  31
ATOM     28  F   UNL     1      50.113  73.248  37.660  0.00  0.00    +0.000 F 
ATOM     29  F   UNL     1      47.115  71.295  41.765  0.00  0.00    +0.000 F 
ATOM     30  F   UNL     1      47.636  73.978  41.588  0.00  0.00    +0.000 F 
ATOM     31  C   UNL     1      49.153  71.370  38.750  0.00  0.00    +0.000 A 
ATOM     32  C   UNL     1      49.387  72.751  38.671  0.00  0.00    +0.000 A 
ATOM     33  C   UNL     1      48.365  70.886  39.810  0.00  0.00    +0.000 A 
ATOM     34  C   UNL     1      47.859  71.774  40.758  0.00  0.00    +0.000 A 
ATOM     35  C   UNL     1      48.885  73.635  39.622  0.00  0.00    +0.000 A 
ATOM     36  C   UNL     1      48.122  73.133  40.665  0.00  0.00    +0.000 A 
ENDBRANCH  27  31
ENDBRANCH  23  27
ENDBRANCH  22  23
ENDBRANCH  10  22
TORSDOF 8
ENDMDL
MODEL 3
REMARK VINA RESULT:      -8.3     24.743     27.118
REMARK  Name = 10254918
REMARK  8 active torsions:
REMARK  status: ('A' for Active; 'I' for Inactive)
REMARK    1  A    between atoms: N_11  and  C_20
REMARK    2  A    between atoms: N_13  and  C_23
REMARK    3  A    between atoms: C_16  and  C_20
REMARK    4  A    between atoms: C_21  and  C_22
REMARK    5  A    between atoms: C_22  and  C_23
REMARK    6  A    between atoms: C_23  and  C_24
REMARK    7  A    between atoms: C_24  and  C_26
REMARK    8  A    between atoms: C_25  and  C_27
REMARK                            x       y       z     vdW  Elec       q    Type
REMARK                         _______ _______ _______ _____ _____    ______ ____
ROOT
ATOM      1  O   UNL     1      52.683  69.585  43.308  0.00  0.00    +0.000 OA
ATOM      2  N   UNL     1      52.657  70.090  41.070  0.00  0.00    +0.000 N 
ATOM      3  N   UNL     1      53.830  70.362  38.584  0.00  0.00    +0.000 N 
ATOM      4  N   UNL     1      55.786  71.048  39.228  0.00  0.00    +0.000 NA
ATOM      5  N   UNL     1      54.523  70.363  37.443  0.00  0.00    +0.000 NA
ATOM      6  C   UNL     1      54.039  70.688  41.079  0.00  0.00    +0.000 C 
ATOM      7  C   UNL     1      51.831  70.477  39.910  0.00  0.00    +0.000 C 
ATOM      8  C   UNL     1      54.580  70.732  39.660  0.00  0.00    +0.000 A 
ATOM      9  C   UNL     1      52.444  69.967  38.620  0.00  0.00    +0.000 C 
ATOM     10  C   UNL     1      52.087  69.579  42.231  0.00  0.00    +0.000 C 
ATOM     11  C   UNL     1      55.755  70.713  37.873  0.00  0.00    +0.000 A 
ENDROOT
BRANCH  11  15
ATOM     12  F   UNL     1      57.461  71.961  36.731  0.00  0.00    +0.000 F 
ATOM     13  F   UNL     1      56.698  70.171  35.747  0.00  0.00    +0.000 F 
ATOM     14  F   UNL     1      58.002  69.988  37.488  0.00  0.00    +0.000 F 
ATOM     15  C   UNL     1      56.968  70.715  36.969  0.00  0.00    +0.000 C 
ENDBRANCH  11  15
BRANCH   6  16
ATOM     16  C   UNL     1      55.100  70.095  42.038  0.00  0.00    +0.000 C 
BRANCH  16  17
ATOM     17  N   UNL     1      55.809  71.053  42.855  0.00  0.00    +0.000 N 
ATOM     18  N   UNL     1      55.253  72.233  43.183  0.00  0.00    +0.000 NA
ATOM     19  N   UNL     1      57.243  71.938  44.247  0.00  0.00    +0.000 NA
ATOM     20  C   UNL     1      56.991  70.880  43.507  0.00  0.00    +0.000 A 
ATOM     21  C   UNL     1      56.150  72.726  44.036  0.00  0.00    +0.000 A 
ENDBRANCH  16  17
ENDBRANCH   6  16
BRANCH  10  22
ATOM     22  C   UNL     1      50.699  68.952  42.164  0.00  0.00    +0.000 C 
BRANCH  22  23
ATOM     23  C   UNL     1      49.626  69.760  42.915  0.00  0.00    +0.000 C 
BRANCH  23  24
ATOM     24  N   UNL     1      49.385  69.110  44.215  0.00  0.00    +0.000 NA
ATOM     25  H   UNL     1      49.838  69.638  44.962  0.00  0.00    +0.000 HD
ATOM     26  H   UNL     1      49.836  68.193  44.225  0.00  0.00    +0.000 HD
ENDBRANCH  23  24
BRANCH  23  27
ATOM     27  C   UNL     1      48.334  69.916  42.077  0.00  0.00    +0.000 C 
BRANCH  27  31
ATOM     28  F   UNL     1      48.103  69.637  39.245  0.00  0.00    +0.000 F 
ATOM     29  F   UNL     1      48.479  74.720  41.163  0.00  0.00    +0.000 F 
ATOM     30  F   UNL     1      48.271  74.270  38.470  0.00  0.00    +0.000 F 
ATOM     31  C   UNL     1      48.335  71.082  41.113  0.00  0.00    +0.000 A 
ATOM     32  C   UNL     1      48.208  70.882  39.731  0.00  0.00    +0.000 A 
ATOM     33  C   UNL     1      48.418  72.403  41.591  0.00  0.00    +0.000 A 
ATOM     34  C   UNL     1      48.394  73.467  40.691  0.00  0.00    +0.000 A 
ATOM     35  C   UNL     1      48.190  71.946  38.834  0.00  0.00    +0.000 A 
ATOM     36  C   UNL     1      48.285  73.238  39.327  0.00  0.00    +0.000 A 
ENDBRANCH  27  31
ENDBRANCH  23  27
ENDBRANCH  22  23
ENDBRANCH  10  22
TORSDOF 8
ENDMDL
MODEL 4
REMARK VINA RESULT:      -7.8     25.435     27.261
REMARK  Name = 10254918
REMARK  8 active torsions:
REMARK  status: ('A' for Active; 'I' for Inactive)
REMARK    1  A    between atoms: N_11  and  C_20
REMARK    2  A    between atoms: N_13  and  C_23
REMARK    3  A    between atoms: C_16  and  C_20
REMARK    4  A    between atoms: C_21  and  C_22
REMARK    5  A    between atoms: C_22  and  C_23
REMARK    6  A    between atoms: C_23  and  C_24
REMARK    7  A    between atoms: C_24  and  C_26
REMARK    8  A    between atoms: C_25  and  C_27
REMARK                            x       y       z     vdW  Elec       q    Type
REMARK                         _______ _______ _______ _____ _____    ______ ____
ROOT
ATOM      1  O   UNL     1      54.613  68.976  39.961  0.00  0.00    +0.000 OA
ATOM      2  N   UNL     1      52.937  69.940  38.726  0.00  0.00    +0.000 N 
ATOM      3  N   UNL     1      50.820  71.676  38.364  0.00  0.00    +0.000 N 
ATOM      4  N   UNL     1      49.969  71.561  40.357  0.00  0.00    +0.000 NA
ATOM      5  N   UNL     1      49.876  72.620  38.328  0.00  0.00    +0.000 NA
ATOM      6  C   UNL     1      51.990  70.043  39.892  0.00  0.00    +0.000 C 
ATOM      7  C   UNL     1      52.290  70.038  37.403  0.00  0.00    +0.000 C 
ATOM      8  C   UNL     1      50.910  71.064  39.578  0.00  0.00    +0.000 A 
ATOM      9  C   UNL     1      51.651  71.402  37.219  0.00  0.00    +0.000 C 
ATOM     10  C   UNL     1      54.206  69.392  38.876  0.00  0.00    +0.000 C 
ATOM     11  C   UNL     1      49.413  72.590  39.596  0.00  0.00    +0.000 A 
ENDROOT
BRANCH  11  15
ATOM     12  F   UNL     1      48.973  74.782  40.480  0.00  0.00    +0.000 F 
ATOM     13  F   UNL     1      47.761  73.133  41.233  0.00  0.00    +0.000 F 
ATOM     14  F   UNL     1      47.440  73.888  39.210  0.00  0.00    +0.000 F 
ATOM     15  C   UNL     1      48.410  73.593  40.126  0.00  0.00    +0.000 C 
ENDBRANCH  11  15
BRANCH   6  16
ATOM     16  C   UNL     1      52.574  70.300  41.303  0.00  0.00    +0.000 C 
BRANCH  16  17
ATOM     17  N   UNL     1      52.172  69.361  42.326  0.00  0.00    +0.000 N 
ATOM     18  N   UNL     1      53.071  68.564  42.930  0.00  0.00    +0.000 NA
ATOM     19  N   UNL     1      51.018  68.358  43.888  0.00  0.00    +0.000 NA
ATOM     20  C   UNL     1      50.952  69.242  42.915  0.00  0.00    +0.000 A 
ATOM     21  C   UNL     1      52.331  67.987  43.875  0.00  0.00    +0.000 A 
ENDBRANCH  16  17
ENDBRANCH   6  16
BRANCH  10  22
ATOM     22  C   UNL     1      55.141  69.341  37.673  0.00  0.00    +0.000 C 
BRANCH  22  23
ATOM     23  C   UNL     1      55.814  70.690  37.363  0.00  0.00    +0.000 C 
BRANCH  23  24
ATOM     24  N   UNL     1      55.293  71.180  36.075  0.00  0.00    +0.000 NA
ATOM     25  H   UNL     1      54.848  72.090  36.199  0.00  0.00    +0.000 HD
ATOM     26  H   UNL     1      54.548  70.560  35.751  0.00  0.00    +0.000 HD
ENDBRANCH  23  24
BRANCH  23  27
ATOM     27  C   UNL     1      57.358  70.578  37.379  0.00  0.00    +0.000 C 
BRANCH  27  31
ATOM     28  F   UNL     1      57.458  72.976  38.925  0.00  0.00    +0.000 F 
ATOM     29  F   UNL     1      59.631  68.527  41.194  0.00  0.00    +0.000 F 
ATOM     30  F   UNL     1      59.659  70.916  42.532  0.00  0.00    +0.000 F 
ATOM     31  C   UNL     1      57.990  70.669  38.750  0.00  0.00    +0.000 A 
ATOM     32  C   UNL     1      57.999  71.875  39.466  0.00  0.00    +0.000 A 
ATOM     33  C   UNL     1      58.545  69.528  39.358  0.00  0.00    +0.000 A 
ATOM     34  C   UNL     1      59.102  69.623  40.632  0.00  0.00    +0.000 A 
ATOM     35  C   UNL     1      58.562  71.970  40.736  0.00  0.00    +0.000 A 
ATOM     36  C   UNL     1      59.113  70.834  41.310  0.00  0.00    +0.000 A 
ENDBRANCH  27  31
ENDBRANCH  23  27
ENDBRANCH  22  23
ENDBRANCH  10  22
TORSDOF 8
ENDMDL
MODEL 5
REMARK VINA RESULT:      -7.4     13.948     15.831
REMARK  Name = 10254918
REMARK  8 active torsions:
REMARK  status: ('A' for Active; 'I' for Inactive)
REMARK    1  A    between atoms: N_11  and  C_20
REMARK    2  A    between atoms: N_13  and  C_23
REMARK    3  A    between atoms: C_16  and  C_20
REMARK    4  A    between atoms: C_21  and  C_22
REMARK    5  A    between atoms: C_22  and  C_23
REMARK    6  A    between atoms: C_23  and  C_24
REMARK    7  A    between atoms: C_24  and  C_26
REMARK    8  A    between atoms: C_25  and  C_27
REMARK                            x       y       z     vdW  Elec       q    Type
REMARK                         _______ _______ _______ _____ _____    ______ ____
ROOT
ATOM      1  O   UNL     1      48.027  48.885  41.097  0.00  0.00    +0.000 OA
ATOM      2  N   UNL     1      49.627  50.402  41.733  0.00  0.00    +0.000 N 
ATOM      3  N   UNL     1      51.895  51.172  43.109  0.00  0.00    +0.000 N 
ATOM      4  N   UNL     1      51.606  49.972  44.895  0.00  0.00    +0.000 NA
ATOM      5  N   UNL     1      53.040  51.359  43.769  0.00  0.00    +0.000 NA
ATOM      6  C   UNL     1      49.737  49.861  43.134  0.00  0.00    +0.000 C 
ATOM      7  C   UNL     1      50.157  51.768  41.562  0.00  0.00    +0.000 C 
ATOM      8  C   UNL     1      51.047  50.319  43.751  0.00  0.00    +0.000 A 
ATOM      9  C   UNL     1      51.649  51.803  41.838  0.00  0.00    +0.000 C 
ATOM     10  C   UNL     1      48.746  49.843  40.813  0.00  0.00    +0.000 C 
ATOM     11  C   UNL     1      52.878  50.545  44.834  0.00  0.00    +0.000 A 
ENDROOT
BRANCH  11  15
ATOM     12  F   UNL     1      53.525  49.765  47.013  0.00  0.00    +0.000 F 
ATOM     13  F   UNL     1      54.671  51.408  46.153  0.00  0.00    +0.000 F 
ATOM     14  F   UNL     1      54.902  49.386  45.364  0.00  0.00    +0.000 F 
ATOM     15  C   UNL     1      53.980  50.276  45.836  0.00  0.00    +0.000 C 
ENDBRANCH  11  15
BRANCH   6  16
ATOM     16  C   UNL     1      49.541  48.342  43.362  0.00  0.00    +0.000 C 
BRANCH  16  17
ATOM     17  N   UNL     1      48.452  47.978  44.239  0.00  0.00    +0.000 N 
ATOM     18  N   UNL     1      48.414  46.774  44.837  0.00  0.00    +0.000 NA
ATOM     19  N   UNL     1      46.727  48.110  45.576  0.00  0.00    +0.000 NA
ATOM     20  C   UNL     1      47.449  48.774  44.699  0.00  0.00    +0.000 A 
ATOM     21  C   UNL     1      47.363  46.905  45.645  0.00  0.00    +0.000 A 
ENDBRANCH  16  17
ENDBRANCH   6  16
BRANCH  10  22
ATOM     22  C   UNL     1      48.696  50.405  39.396  0.00  0.00    +0.000 C 
BRANCH  22  23
ATOM     23  C   UNL     1      49.424  49.526  38.364  0.00  0.00    +0.000 C 
BRANCH  23  24
ATOM     24  N   UNL     1      49.825  48.273  39.028  0.00  0.00    +0.000 NA
ATOM     25  H   UNL     1      49.228  47.505  38.719  0.00  0.00    +0.000 HD
ATOM     26  H   UNL     1      49.660  48.352  40.033  0.00  0.00    +0.000 HD
ENDBRANCH  23  24
BRANCH  23  27
ATOM     27  C   UNL     1      50.620  50.268  37.720  0.00  0.00    +0.000 C 
BRANCH  27  31
ATOM     28  F   UNL     1      49.338  50.111  35.173  0.00  0.00    +0.000 F 
ATOM     29  F   UNL     1      54.271  47.836  35.556  0.00  0.00    +0.000 F 
ATOM     30  F   UNL     1      52.893  47.759  33.191  0.00  0.00    +0.000 F 
ATOM     31  C   UNL     1      51.223  49.580  36.515  0.00  0.00    +0.000 A 
ATOM     32  C   UNL     1      50.548  49.545  35.286  0.00  0.00    +0.000 A 
ATOM     33  C   UNL     1      52.502  48.999  36.591  0.00  0.00    +0.000 A 
ATOM     34  C   UNL     1      53.054  48.391  35.465  0.00  0.00    +0.000 A 
ATOM     35  C   UNL     1      51.099  48.932  34.164  0.00  0.00    +0.000 A 
ATOM     36  C   UNL     1      52.356  48.354  34.267  0.00  0.00    +0.000 A 
ENDBRANCH  27  31
ENDBRANCH  23  27
ENDBRANCH  22  23
ENDBRANCH  10  22
TORSDOF 8
ENDMDL
MODEL 6
REMARK VINA RESULT:      -7.4     27.045     28.802
REMARK  Name = 10254918
REMARK  8 active torsions:
REMARK  status: ('A' for Active; 'I' for Inactive)
REMARK    1  A    between atoms: N_11  and  C_20
REMARK    2  A    between atoms: N_13  and  C_23
REMARK    3  A    between atoms: C_16  and  C_20
REMARK    4  A    between atoms: C_21  and  C_22
REMARK    5  A    between atoms: C_22  and  C_23
REMARK    6  A    between atoms: C_23  and  C_24
REMARK    7  A    between atoms: C_24  and  C_26
REMARK    8  A    between atoms: C_25  and  C_27
REMARK                            x       y       z     vdW  Elec       q    Type
REMARK                         _______ _______ _______ _____ _____    ______ ____
ROOT
ATOM      1  O   UNL     1      58.983  68.083  36.937  0.00  0.00    +0.000 OA
ATOM      2  N   UNL     1      57.880  69.940  37.713  0.00  0.00    +0.000 N 
ATOM      3  N   UNL     1      55.615  71.434  38.229  0.00  0.00    +0.000 N 
ATOM      4  N   UNL     1      54.444  70.844  36.499  0.00  0.00    +0.000 NA
ATOM      5  N   UNL     1      54.428  71.988  38.483  0.00  0.00    +0.000 NA
ATOM      6  C   UNL     1      56.831  69.901  36.634  0.00  0.00    +0.000 C 
ATOM      7  C   UNL     1      58.003  71.241  38.399  0.00  0.00    +0.000 C 
ATOM      8  C   UNL     1      55.628  70.719  37.069  0.00  0.00    +0.000 A 
ATOM      9  C   UNL     1      56.722  71.580  39.139  0.00  0.00    +0.000 C 
ATOM     10  C   UNL     1      58.898  68.993  37.762  0.00  0.00    +0.000 C 
ATOM     11  C   UNL     1      53.691  71.545  37.442  0.00  0.00    +0.000 A 
ENDROOT
BRANCH  11  15
ATOM     12  F   UNL     1      51.877  73.033  36.921  0.00  0.00    +0.000 F 
ATOM     13  F   UNL     1      51.566  71.596  38.531  0.00  0.00    +0.000 F 
ATOM     14  F   UNL     1      51.603  70.920  36.456  0.00  0.00    +0.000 F 
ATOM     15  C   UNL     1      52.199  71.777  37.336  0.00  0.00    +0.000 C 
ENDBRANCH  11  15
BRANCH   6  16
ATOM     16  C   UNL     1      56.375  68.525  36.090  0.00  0.00    +0.000 C 
BRANCH  16  17
ATOM     17  N   UNL     1      56.426  68.372  34.654  0.00  0.00    +0.000 N 
ATOM     18  N   UNL     1      55.301  68.245  33.928  0.00  0.00    +0.000 NA
ATOM     19  N   UNL     1      57.131  68.400  32.585  0.00  0.00    +0.000 NA
ATOM     20  C   UNL     1      57.512  68.478  33.842  0.00  0.00    +0.000 A 
ATOM     21  C   UNL     1      55.776  68.280  32.684  0.00  0.00    +0.000 A 
ENDBRANCH  16  17
ENDBRANCH   6  16
BRANCH  10  22
ATOM     22  C   UNL     1      59.917  69.055  38.895  0.00  0.00    +0.000 C 
BRANCH  22  23
ATOM     23  C   UNL     1      59.349  68.606  40.253  0.00  0.00    +0.000 C 
BRANCH  23  24
ATOM     24  N   UNL     1      60.008  69.392  41.310  0.00  0.00    +0.000 NA
ATOM     25  H   UNL     1      60.823  69.878  40.931  0.00  0.00    +0.000 HD
ATOM     26  H   UNL     1      60.382  68.761  42.021  0.00  0.00    +0.000 HD
ENDBRANCH  23  24
BRANCH  23  27
ATOM     27  C   UNL     1      59.502  67.079  40.461  0.00  0.00    +0.000 C 
BRANCH  27  31
ATOM     28  F   UNL     1      60.743  65.015  41.995  0.00  0.00    +0.000 F 
ATOM     29  F   UNL     1      56.183  67.166  44.054  0.00  0.00    +0.000 F 
ATOM     30  F   UNL     1      57.491  65.163  45.386  0.00  0.00    +0.000 F 
ATOM     31  C   UNL     1      58.952  66.557  41.770  0.00  0.00    +0.000 A 
ATOM     32  C   UNL     1      59.613  65.546  42.483  0.00  0.00    +0.000 A 
ATOM     33  C   UNL     1      57.783  67.109  42.324  0.00  0.00    +0.000 A 
ATOM     34  C   UNL     1      57.302  66.633  43.543  0.00  0.00    +0.000 A 
ATOM     35  C   UNL     1      59.128  65.068  43.697  0.00  0.00    +0.000 A 
ATOM     36  C   UNL     1      57.967  65.619  44.218  0.00  0.00    +0.000 A 
ENDBRANCH  27  31
ENDBRANCH  23  27
ENDBRANCH  22  23
ENDBRANCH  10  22
TORSDOF 8
ENDMDL
MODEL 7
REMARK VINA RESULT:      -7.1     25.766     28.033
REMARK  Name = 10254918
REMARK  8 active torsions:
REMARK  status: ('A' for Active; 'I' for Inactive)
REMARK    1  A    between atoms: N_11  and  C_20
REMARK    2  A    between atoms: N_13  and  C_23
REMARK    3  A    between atoms: C_16  and  C_20
REMARK    4  A    between atoms: C_21  and  C_22
REMARK    5  A    between atoms: C_22  and  C_23
REMARK    6  A    between atoms: C_23  and  C_24
REMARK    7  A    between atoms: C_24  and  C_26
REMARK    8  A    between atoms: C_25  and  C_27
REMARK                            x       y       z     vdW  Elec       q    Type
REMARK                         _______ _______ _______ _____ _____    ______ ____
ROOT
ATOM      1  O   UNL     1      57.490  65.793  42.844  0.00  0.00    +0.000 OA
ATOM      2  N   UNL     1      59.327  64.433  42.644  0.00  0.00    +0.000 N 
ATOM      3  N   UNL     1      60.568  61.985  42.339  0.00  0.00    +0.000 N 
ATOM      4  N   UNL     1      59.174  60.776  43.482  0.00  0.00    +0.000 NA
ATOM      5  N   UNL     1      61.006  60.745  42.108  0.00  0.00    +0.000 NA
ATOM      6  C   UNL     1      58.710  63.304  43.425  0.00  0.00    +0.000 C 
ATOM      7  C   UNL     1      60.798  64.367  42.534  0.00  0.00    +0.000 C 
ATOM      8  C   UNL     1      59.456  62.015  43.126  0.00  0.00    +0.000 A 
ATOM      9  C   UNL     1      61.223  63.131  41.763  0.00  0.00    +0.000 C 
ATOM     10  C   UNL     1      58.634  65.618  42.422  0.00  0.00    +0.000 C 
ATOM     11  C   UNL     1      60.082  60.003  42.757  0.00  0.00    +0.000 A 
ENDROOT
BRANCH  11  15
ATOM     12  F   UNL     1      59.028  57.943  43.402  0.00  0.00    +0.000 F 
ATOM     13  F   UNL     1      61.191  57.923  43.134  0.00  0.00    +0.000 F 
ATOM     14  F   UNL     1      59.878  58.047  41.396  0.00  0.00    +0.000 F 
ATOM     15  C   UNL     1      60.040  58.493  42.677  0.00  0.00    +0.000 C 
ENDBRANCH  11  15
BRANCH   6  16
ATOM     16  C   UNL     1      57.182  63.074  43.319  0.00  0.00    +0.000 C 
BRANCH  16  17
ATOM     17  N   UNL     1      56.504  62.792  44.563  0.00  0.00    +0.000 N 
ATOM     18  N   UNL     1      56.152  63.782  45.403  0.00  0.00    +0.000 NA
ATOM     19  N   UNL     1      55.350  61.776  46.117  0.00  0.00    +0.000 NA
ATOM     20  C   UNL     1      56.008  61.600  44.992  0.00  0.00    +0.000 A 
ATOM     21  C   UNL     1      55.445  63.122  46.319  0.00  0.00    +0.000 A 
ENDBRANCH  16  17
ENDBRANCH   6  16
BRANCH  10  22
ATOM     22  C   UNL     1      59.289  66.719  41.596  0.00  0.00    +0.000 C 
BRANCH  22  23
ATOM     23  C   UNL     1      58.285  67.735  41.025  0.00  0.00    +0.000 C 
BRANCH  23  24
ATOM     24  N   UNL     1      57.463  67.050  40.012  0.00  0.00    +0.000 NA
ATOM     25  H   UNL     1      57.159  66.140  40.363  0.00  0.00    +0.000 HD
ATOM     26  H   UNL     1      58.035  66.843  39.192  0.00  0.00    +0.000 HD
ENDBRANCH  23  24
BRANCH  23  27
ATOM     27  C   UNL     1      58.995  68.992  40.466  0.00  0.00    +0.000 C 
BRANCH  27  31
ATOM     28  F   UNL     1      60.280  71.472  39.873  0.00  0.00    +0.000 F 
ATOM     29  F   UNL     1      57.175  71.350  44.346  0.00  0.00    +0.000 F 
ATOM     30  F   UNL     1      58.495  73.644  43.641  0.00  0.00    +0.000 F 
ATOM     31  C   UNL     1      58.873  70.229  41.327  0.00  0.00    +0.000 A 
ATOM     32  C   UNL     1      59.521  71.423  40.978  0.00  0.00    +0.000 A 
ATOM     33  C   UNL     1      58.066  70.221  42.478  0.00  0.00    +0.000 A 
ATOM     34  C   UNL     1      57.945  71.377  43.248  0.00  0.00    +0.000 A 
ATOM     35  C   UNL     1      59.404  72.575  41.751  0.00  0.00    +0.000 A 
ATOM     36  C   UNL     1      58.612  72.539  42.889  0.00  0.00    +0.000 A 
ENDBRANCH  27  31
ENDBRANCH  23  27
ENDBRANCH  22  23
ENDBRANCH  10  22
TORSDOF 8
ENDMDL
MODEL 8
REMARK VINA RESULT:      -6.8      4.585     10.933
REMARK  Name = 10254918
REMARK  8 active torsions:
REMARK  status: ('A' for Active; 'I' for Inactive)
REMARK    1  A    between atoms: N_11  and  C_20
REMARK    2  A    between atoms: N_13  and  C_23
REMARK    3  A    between atoms: C_16  and  C_20
REMARK    4  A    between atoms: C_21  and  C_22
REMARK    5  A    between atoms: C_22  and  C_23
REMARK    6  A    between atoms: C_23  and  C_24
REMARK    7  A    between atoms: C_24  and  C_26
REMARK    8  A    between atoms: C_25  and  C_27
REMARK                            x       y       z     vdW  Elec       q    Type
REMARK                         _______ _______ _______ _____ _____    ______ ____
ROOT
ATOM      1  O   UNL     1      40.181  53.169  40.765  0.00  0.00    +0.000 OA
ATOM      2  N   UNL     1      40.046  52.131  38.723  0.00  0.00    +0.000 N 
ATOM      3  N   UNL     1      41.092  51.255  36.322  0.00  0.00    +0.000 N 
ATOM      4  N   UNL     1      42.473  52.891  35.960  0.00  0.00    +0.000 NA
ATOM      5  N   UNL     1      41.767  50.830  35.251  0.00  0.00    +0.000 NA
ATOM      6  C   UNL     1      40.992  53.091  38.052  0.00  0.00    +0.000 C 
ATOM      7  C   UNL     1      39.198  51.359  37.794  0.00  0.00    +0.000 C 
ATOM      8  C   UNL     1      41.528  52.464  36.776  0.00  0.00    +0.000 A 
ATOM      9  C   UNL     1      40.047  50.461  36.914  0.00  0.00    +0.000 C 
ATOM     10  C   UNL     1      39.715  52.269  40.067  0.00  0.00    +0.000 C 
ATOM     11  C   UNL     1      42.673  51.819  35.089  0.00  0.00    +0.000 A 
ENDROOT
BRANCH  11  15
ATOM     12  F   UNL     1      43.520  50.921  33.027  0.00  0.00    +0.000 F 
ATOM     13  F   UNL     1      44.954  51.283  34.629  0.00  0.00    +0.000 F 
ATOM     14  F   UNL     1      44.089  52.964  33.538  0.00  0.00    +0.000 F 
ATOM     15  C   UNL     1      43.795  51.744  34.077  0.00  0.00    +0.000 C 
ENDBRANCH  11  15
BRANCH   6  16
ATOM     16  C   UNL     1      42.154  53.692  38.881  0.00  0.00    +0.000 C 
BRANCH  16  17
ATOM     17  N   UNL     1      43.272  52.809  39.122  0.00  0.00    +0.000 N 
ATOM     18  N   UNL     1      43.089  51.580  39.638  0.00  0.00    +0.000 NA
ATOM     19  N   UNL     1      45.261  51.905  39.041  0.00  0.00    +0.000 NA
ATOM     20  C   UNL     1      44.570  52.987  38.755  0.00  0.00    +0.000 A 
ATOM     21  C   UNL     1      44.316  51.067  39.557  0.00  0.00    +0.000 A 
ENDBRANCH  16  17
ENDBRANCH   6  16
BRANCH  10  22
ATOM     22  C   UNL     1      38.779  51.251  40.709  0.00  0.00    +0.000 C 
BRANCH  22  23
ATOM     23  C   UNL     1      37.620  51.895  41.491  0.00  0.00    +0.000 C 
BRANCH  23  24
ATOM     24  N   UNL     1      37.050  52.974  40.665  0.00  0.00    +0.000 NA
ATOM     25  H   UNL     1      36.105  52.728  40.369  0.00  0.00    +0.000 HD
ATOM     26  H   UNL     1      37.587  53.060  39.800  0.00  0.00    +0.000 HD
ENDBRANCH  23  24
BRANCH  23  27
ATOM     27  C   UNL     1      38.073  52.388  42.887  0.00  0.00    +0.000 C 
BRANCH  27  31
ATOM     28  F   UNL     1      36.978  55.006  43.200  0.00  0.00    +0.000 F 
ATOM     29  F   UNL     1      34.741  51.060  46.213  0.00  0.00    +0.000 F 
ATOM     30  F   UNL     1      33.825  53.634  46.404  0.00  0.00    +0.000 F 
ATOM     31  C   UNL     1      36.948  52.721  43.842  0.00  0.00    +0.000 A 
ATOM     32  C   UNL     1      36.445  54.027  43.944  0.00  0.00    +0.000 A 
ATOM     33  C   UNL     1      36.349  51.713  44.618  0.00  0.00    +0.000 A 
ATOM     34  C   UNL     1      35.297  52.032  45.476  0.00  0.00    +0.000 A 
ATOM     35  C   UNL     1      35.399  54.344  44.805  0.00  0.00    +0.000 A 
ATOM     36  C   UNL     1      34.832  53.336  45.569  0.00  0.00    +0.000 A 
ENDBRANCH  27  31
ENDBRANCH  23  27
ENDBRANCH  22  23
ENDBRANCH  10  22
TORSDOF 8
ENDMDL
MODEL 9
REMARK VINA RESULT:      -6.5     25.282     27.324
REMARK  Name = 10254918
REMARK  8 active torsions:
REMARK  status: ('A' for Active; 'I' for Inactive)
REMARK    1  A    between atoms: N_11  and  C_20
REMARK    2  A    between atoms: N_13  and  C_23
REMARK    3  A    between atoms: C_16  and  C_20
REMARK    4  A    between atoms: C_21  and  C_22
REMARK    5  A    between atoms: C_22  and  C_23
REMARK    6  A    between atoms: C_23  and  C_24
REMARK    7  A    between atoms: C_24  and  C_26
REMARK    8  A    between atoms: C_25  and  C_27
REMARK                            x       y       z     vdW  Elec       q    Type
REMARK                         _______ _______ _______ _____ _____    ______ ____
ROOT
ATOM      1  O   UNL     1      56.253  66.401  43.746  0.00  0.00    +0.000 OA
ATOM      2  N   UNL     1      58.245  65.336  43.340  0.00  0.00    +0.000 N 
ATOM      3  N   UNL     1      59.788  63.128  42.733  0.00  0.00    +0.000 N 
ATOM      4  N   UNL     1      58.627  61.628  43.790  0.00  0.00    +0.000 NA
ATOM      5  N   UNL     1      60.376  61.990  42.356  0.00  0.00    +0.000 NA
ATOM      6  C   UNL     1      57.824  64.060  44.018  0.00  0.00    +0.000 C 
ATOM      7  C   UNL     1      59.703  65.487  43.171  0.00  0.00    +0.000 C 
ATOM      8  C   UNL     1      58.722  62.924  43.557  0.00  0.00    +0.000 A 
ATOM      9  C   UNL     1      60.252  64.406  42.259  0.00  0.00    +0.000 C 
ATOM     10  C   UNL     1      57.388  66.429  43.269  0.00  0.00    +0.000 C 
ATOM     11  C   UNL     1      59.594  61.066  42.955  0.00  0.00    +0.000 A 
ENDROOT
BRANCH  11  15
ATOM     12  F   UNL     1      61.051  59.172  42.704  0.00  0.00    +0.000 F 
ATOM     13  F   UNL     1      59.218  59.193  41.523  0.00  0.00    +0.000 F 
ATOM     14  F   UNL     1      59.127  58.833  43.674  0.00  0.00    +0.000 F 
ATOM     15  C   UNL     1      59.752  59.580  42.717  0.00  0.00    +0.000 C 
ENDBRANCH  11  15
BRANCH   6  16
ATOM     16  C   UNL     1      56.338  63.632  43.941  0.00  0.00    +0.000 C 
BRANCH  16  17
ATOM     17  N   UNL     1      55.681  63.426  45.211  0.00  0.00    +0.000 N 
ATOM     18  N   UNL     1      54.401  63.794  45.399  0.00  0.00    +0.000 NA
ATOM     19  N   UNL     1      55.207  62.671  47.207  0.00  0.00    +0.000 NA
ATOM     20  C   UNL     1      56.148  62.743  46.291  0.00  0.00    +0.000 A 
ATOM     21  C   UNL     1      54.154  63.304  46.614  0.00  0.00    +0.000 A 
ENDBRANCH  16  17
ENDBRANCH   6  16
BRANCH  10  22
ATOM     22  C   UNL     1      57.847  67.688  42.542  0.00  0.00    +0.000 C 
BRANCH  22  23
ATOM     23  C   UNL     1      56.882  68.875  42.704  0.00  0.00    +0.000 C 
BRANCH  23  24
ATOM     24  N   UNL     1      55.706  68.633  41.849  0.00  0.00    +0.000 NA
ATOM     25  H   UNL     1      54.870  68.521  42.425  0.00  0.00    +0.000 HD
ATOM     26  H   UNL     1      55.817  67.742  41.363  0.00  0.00    +0.000 HD
ENDBRANCH  23  24
BRANCH  23  27
ATOM     27  C   UNL     1      57.575  70.225  42.397  0.00  0.00    +0.000 C 
BRANCH  27  31
ATOM     28  F   UNL     1      55.519  71.932  41.392  0.00  0.00    +0.000 F 
ATOM     29  F   UNL     1      59.317  70.343  37.827  0.00  0.00    +0.000 F 
ATOM     30  F   UNL     1      57.263  71.967  37.026  0.00  0.00    +0.000 F 
ATOM     31  C   UNL     1      57.484  70.675  40.955  0.00  0.00    +0.000 A 
ATOM     32  C   UNL     1      56.455  71.523  40.523  0.00  0.00    +0.000 A 
ATOM     33  C   UNL     1      58.463  70.286  40.023  0.00  0.00    +0.000 A 
ATOM     34  C   UNL     1      58.379  70.728  38.704  0.00  0.00    +0.000 A 
ATOM     35  C   UNL     1      56.369  71.960  39.204  0.00  0.00    +0.000 A 
ATOM     36  C   UNL     1      57.339  71.553  38.300  0.00  0.00    +0.000 A 
ENDBRANCH  27  31
ENDBRANCH  23  27
ENDBRANCH  22  23
ENDBRANCH  10  22
TORSDOF 8
ENDMDL
