MODEL 1
REMARK VINA RESULT:      -8.5      0.000      0.000
REMARK  Name = 10028078
REMARK  8 active torsions:
REMARK  status: ('A' for Active; 'I' for Inactive)
REMARK    1  A    between atoms: N_13  and  C_25
REMARK    2  A    between atoms: C_14  and  C_17
REMARK    3  A    between atoms: C_17  and  C_18
REMARK    4  A    between atoms: C_22  and  C_23
REMARK    5  A    between atoms: C_23  and  C_25
REMARK    6  A    between atoms: C_24  and  C_27
REMARK    7  A    between atoms: C_25  and  C_26
REMARK    8  A    between atoms: C_26  and  C_28
REMARK                            x       y       z     vdW  Elec       q    Type
REMARK                         _______ _______ _______ _____ _____    ______ ____
ROOT
ATOM      1  O   UNL     1      54.465  69.874  37.070  0.00  0.00    +0.000 OA
ATOM      2  N   UNL     1      54.014  69.983  39.307  0.00  0.00    +0.000 N 
ATOM      3  N   UNL     1      54.468  70.896  41.879  0.00  0.00    +0.000 N 
ATOM      4  N   UNL     1      56.613  71.171  41.760  0.00  0.00    +0.000 NA
ATOM      5  N   UNL     1      54.762  71.422  43.073  0.00  0.00    +0.000 NA
ATOM      6  C   UNL     1      55.469  70.282  39.638  0.00  0.00    +0.000 C 
ATOM      7  C   UNL     1      55.560  70.774  41.073  0.00  0.00    +0.000 A 
ATOM      8  C   UNL     1      53.155  69.526  40.414  0.00  0.00    +0.000 C 
ATOM      9  C   UNL     1      53.118  70.539  41.536  0.00  0.00    +0.000 C 
ATOM     10  C   UNL     1      53.654  69.770  37.984  0.00  0.00    +0.000 C 
ATOM     11  C   UNL     1      56.088  71.634  42.964  0.00  0.00    +0.000 A 
ENDROOT
BRANCH  11  15
ATOM     12  F   UNL     1      56.136  72.927  44.982  0.00  0.00    +0.000 F 
ATOM     13  F   UNL     1      57.751  71.497  44.667  0.00  0.00    +0.000 F 
ATOM     14  F   UNL     1      57.679  73.339  43.496  0.00  0.00    +0.000 F 
ATOM     15  C   UNL     1      56.905  72.347  44.020  0.00  0.00    +0.000 C 
ENDBRANCH  11  15
BRANCH   6  17
ATOM     16  F   UNL     1      56.028  72.565  39.198  0.00  0.00    +0.000 F 
ATOM     17  C   UNL     1      56.165  71.307  38.678  0.00  0.00    +0.000 C 
BRANCH  17  18
ATOM     18  C   UNL     1      57.627  71.075  38.370  0.00  0.00    +0.000 C 
ATOM     19  C   UNL     1      58.022  70.864  36.925  0.00  0.00    +0.000 C 
ATOM     20  C   UNL     1      58.131  69.726  37.899  0.00  0.00    +0.000 C 
ENDBRANCH  17  18
ENDBRANCH   6  17
BRANCH  10  21
ATOM     21  C   UNL     1      52.205  69.415  37.671  0.00  0.00    +0.000 C 
BRANCH  21  22
ATOM     22  C   UNL     1      51.444  70.646  37.145  0.00  0.00    +0.000 C 
BRANCH  22  23
ATOM     23  N   UNL     1      52.025  71.862  37.745  0.00  0.00    +0.000 NA
ATOM     24  H   UNL     1      51.382  72.642  37.600  0.00  0.00    +0.000 HD
ATOM     25  H   UNL     1      52.879  72.117  37.251  0.00  0.00    +0.000 HD
ENDBRANCH  22  23
BRANCH  22  26
ATOM     26  C   UNL     1      49.934  70.540  37.486  0.00  0.00    +0.000 C 
BRANCH  26  30
ATOM     27  F   UNL     1      49.895  69.515  40.116  0.00  0.00    +0.000 F 
ATOM     28  F   UNL     1      48.194  74.651  39.483  0.00  0.00    +0.000 F 
ATOM     29  F   UNL     1      48.219  73.498  41.966  0.00  0.00    +0.000 F 
ATOM     30  C   UNL     1      49.499  71.357  38.675  0.00  0.00    +0.000 A 
ATOM     31  C   UNL     1      49.492  70.782  39.951  0.00  0.00    +0.000 A 
ATOM     32  C   UNL     1      49.037  72.674  38.522  0.00  0.00    +0.000 A 
ATOM     33  C   UNL     1      48.618  73.389  39.639  0.00  0.00    +0.000 A 
ATOM     34  C   UNL     1      49.064  71.494  41.065  0.00  0.00    +0.000 A 
ATOM     35  C   UNL     1      48.631  72.803  40.898  0.00  0.00    +0.000 A 
ENDBRANCH  26  30
ENDBRANCH  22  26
ENDBRANCH  21  22
ENDBRANCH  10  21
TORSDOF 8
ENDMDL
MODEL 2
REMARK VINA RESULT:      -7.9     21.835     25.111
REMARK  Name = 10028078
REMARK  8 active torsions:
REMARK  status: ('A' for Active; 'I' for Inactive)
REMARK    1  A    between atoms: N_13  and  C_25
REMARK    2  A    between atoms: C_14  and  C_17
REMARK    3  A    between atoms: C_17  and  C_18
REMARK    4  A    between atoms: C_22  and  C_23
REMARK    5  A    between atoms: C_23  and  C_25
REMARK    6  A    between atoms: C_24  and  C_27
REMARK    7  A    between atoms: C_25  and  C_26
REMARK    8  A    between atoms: C_26  and  C_28
REMARK                            x       y       z     vdW  Elec       q    Type
REMARK                         _______ _______ _______ _____ _____    ______ ____
ROOT
ATOM      1  O   UNL     1      44.212  50.476  38.072  0.00  0.00    +0.000 OA
ATOM      2  N   UNL     1      42.531  50.752  36.550  0.00  0.00    +0.000 N 
ATOM      3  N   UNL     1      39.891  50.618  35.730  0.00  0.00    +0.000 N 
ATOM      4  N   UNL     1      39.267  48.905  36.899  0.00  0.00    +0.000 NA
ATOM      5  N   UNL     1      38.586  50.534  35.451  0.00  0.00    +0.000 NA
ATOM      6  C   UNL     1      41.724  49.616  37.159  0.00  0.00    +0.000 C 
ATOM      7  C   UNL     1      40.303  49.673  36.621  0.00  0.00    +0.000 A 
ATOM      8  C   UNL     1      42.158  51.187  35.192  0.00  0.00    +0.000 C 
ATOM      9  C   UNL     1      40.715  51.636  35.135  0.00  0.00    +0.000 C 
ATOM     10  C   UNL     1      43.774  51.058  37.085  0.00  0.00    +0.000 C 
ATOM     11  C   UNL     1      38.204  49.499  36.223  0.00  0.00    +0.000 A 
ENDROOT
BRANCH  11  15
ATOM     12  F   UNL     1      36.002  49.978  37.042  0.00  0.00    +0.000 F 
ATOM     13  F   UNL     1      36.158  48.871  35.171  0.00  0.00    +0.000 F 
ATOM     14  F   UNL     1      36.642  47.893  37.062  0.00  0.00    +0.000 F 
ATOM     15  C   UNL     1      36.762  49.065  36.377  0.00  0.00    +0.000 C 
ENDBRANCH  11  15
BRANCH   6  17
ATOM     16  F   UNL     1      40.547  50.189  39.160  0.00  0.00    +0.000 F 
ATOM     17  C   UNL     1      41.699  49.591  38.726  0.00  0.00    +0.000 C 
BRANCH  17  18
ATOM     18  C   UNL     1      41.816  48.240  39.394  0.00  0.00    +0.000 C 
ATOM     19  C   UNL     1      42.083  48.205  40.882  0.00  0.00    +0.000 C 
ATOM     20  C   UNL     1      43.141  47.734  39.926  0.00  0.00    +0.000 C 
ENDBRANCH  17  18
ENDBRANCH   6  17
BRANCH  10  21
ATOM     21  C   UNL     1      44.598  52.161  36.432  0.00  0.00    +0.000 C 
BRANCH  21  22
ATOM     22  C   UNL     1      45.993  52.255  37.077  0.00  0.00    +0.000 C 
BRANCH  22  23
ATOM     23  N   UNL     1      45.932  53.191  38.216  0.00  0.00    +0.000 NA
ATOM     24  H   UNL     1      45.428  54.031  37.928  0.00  0.00    +0.000 HD
ATOM     25  H   UNL     1      46.871  53.506  38.455  0.00  0.00    +0.000 HD
ENDBRANCH  22  23
BRANCH  22  26
ATOM     26  C   UNL     1      47.044  52.730  36.039  0.00  0.00    +0.000 C 
BRANCH  26  30
ATOM     27  F   UNL     1      48.134  52.533  33.442  0.00  0.00    +0.000 F 
ATOM     28  F   UNL     1      49.836  48.852  37.079  0.00  0.00    +0.000 F 
ATOM     29  F   UNL     1      50.789  48.805  34.513  0.00  0.00    +0.000 F 
ATOM     30  C   UNL     1      48.067  51.690  35.659  0.00  0.00    +0.000 A 
ATOM     31  C   UNL     1      48.557  51.641  34.349  0.00  0.00    +0.000 A 
ATOM     32  C   UNL     1      48.496  50.722  36.581  0.00  0.00    +0.000 A 
ATOM     33  C   UNL     1      49.421  49.761  36.187  0.00  0.00    +0.000 A 
ATOM     34  C   UNL     1      49.474  50.675  33.954  0.00  0.00    +0.000 A 
ATOM     35  C   UNL     1      49.904  49.739  34.885  0.00  0.00    +0.000 A 
ENDBRANCH  26  30
ENDBRANCH  22  26
ENDBRANCH  21  22
ENDBRANCH  10  21
TORSDOF 8
ENDMDL
MODEL 3
REMARK VINA RESULT:      -7.9      3.817      8.712
REMARK  Name = 10028078
REMARK  8 active torsions:
REMARK  status: ('A' for Active; 'I' for Inactive)
REMARK    1  A    between atoms: N_13  and  C_25
REMARK    2  A    between atoms: C_14  and  C_17
REMARK    3  A    between atoms: C_17  and  C_18
REMARK    4  A    between atoms: C_22  and  C_23
REMARK    5  A    between atoms: C_23  and  C_25
REMARK    6  A    between atoms: C_24  and  C_27
REMARK    7  A    between atoms: C_25  and  C_26
REMARK    8  A    between atoms: C_26  and  C_28
REMARK                            x       y       z     vdW  Elec       q    Type
REMARK                         _______ _______ _______ _____ _____    ______ ____
ROOT
ATOM      1  O   UNL     1      53.750  71.064  40.326  0.00  0.00    +0.000 OA
ATOM      2  N   UNL     1      55.043  69.540  39.219  0.00  0.00    +0.000 N 
ATOM      3  N   UNL     1      56.107  68.395  36.935  0.00  0.00    +0.000 N 
ATOM      4  N   UNL     1      54.465  68.780  35.576  0.00  0.00    +0.000 NA
ATOM      5  N   UNL     1      56.580  67.939  35.771  0.00  0.00    +0.000 NA
ATOM      6  C   UNL     1      54.144  69.591  37.994  0.00  0.00    +0.000 C 
ATOM      7  C   UNL     1      54.859  68.932  36.826  0.00  0.00    +0.000 A 
ATOM      8  C   UNL     1      55.962  68.394  39.329  0.00  0.00    +0.000 C 
ATOM      9  C   UNL     1      56.891  68.317  38.138  0.00  0.00    +0.000 C 
ATOM     10  C   UNL     1      54.714  70.304  40.329  0.00  0.00    +0.000 C 
ATOM     11  C   UNL     1      55.570  68.232  34.928  0.00  0.00    +0.000 A 
ENDROOT
BRANCH  11  15
ATOM     12  F   UNL     1      54.433  68.035  32.827  0.00  0.00    +0.000 F 
ATOM     13  F   UNL     1      56.379  69.017  32.826  0.00  0.00    +0.000 F 
ATOM     14  F   UNL     1      56.248  66.853  33.095  0.00  0.00    +0.000 F 
ATOM     15  C   UNL     1      55.654  68.033  33.430  0.00  0.00    +0.000 C 
ENDBRANCH  11  15
BRANCH   6  17
ATOM     16  F   UNL     1      54.519  71.522  36.634  0.00  0.00    +0.000 F 
ATOM     17  C   UNL     1      53.668  71.028  37.584  0.00  0.00    +0.000 C 
BRANCH  17  18
ATOM     18  C   UNL     1      52.252  71.162  37.072  0.00  0.00    +0.000 C 
ATOM     19  C   UNL     1      51.497  72.430  37.401  0.00  0.00    +0.000 C 
ATOM     20  C   UNL     1      51.065  71.128  38.013  0.00  0.00    +0.000 C 
ENDBRANCH  17  18
ENDBRANCH   6  17
BRANCH  10  21
ATOM     21  C   UNL     1      55.590  70.203  41.571  0.00  0.00    +0.000 C 
BRANCH  21  22
ATOM     22  C   UNL     1      56.398  71.497  41.776  0.00  0.00    +0.000 C 
BRANCH  22  23
ATOM     23  N   UNL     1      55.476  72.583  42.158  0.00  0.00    +0.000 NA
ATOM     24  H   UNL     1      55.825  73.464  41.777  0.00  0.00    +0.000 HD
ATOM     25  H   UNL     1      55.482  72.703  43.170  0.00  0.00    +0.000 HD
ENDBRANCH  22  23
BRANCH  22  26
ATOM     26  C   UNL     1      57.170  71.869  40.482  0.00  0.00    +0.000 C 
BRANCH  26  30
ATOM     27  F   UNL     1      58.793  72.977  42.508  0.00  0.00    +0.000 F 
ATOM     28  F   UNL     1      61.332  70.015  38.705  0.00  0.00    +0.000 F 
ATOM     29  F   UNL     1      62.755  71.165  40.743  0.00  0.00    +0.000 F 
ATOM     30  C   UNL     1      58.658  71.645  40.550  0.00  0.00    +0.000 A 
ATOM     31  C   UNL     1      59.405  72.234  41.576  0.00  0.00    +0.000 A 
ATOM     32  C   UNL     1      59.327  70.903  39.563  0.00  0.00    +0.000 A 
ATOM     33  C   UNL     1      60.705  70.739  39.644  0.00  0.00    +0.000 A 
ATOM     34  C   UNL     1      60.784  72.078  41.650  0.00  0.00    +0.000 A 
ATOM     35  C   UNL     1      61.426  71.323  40.678  0.00  0.00    +0.000 A 
ENDBRANCH  26  30
ENDBRANCH  22  26
ENDBRANCH  21  22
ENDBRANCH  10  21
TORSDOF 8
ENDMDL
MODEL 4
REMARK VINA RESULT:      -7.9     23.727     26.651
REMARK  Name = 10028078
REMARK  8 active torsions:
REMARK  status: ('A' for Active; 'I' for Inactive)
REMARK    1  A    between atoms: N_13  and  C_25
REMARK    2  A    between atoms: C_14  and  C_17
REMARK    3  A    between atoms: C_17  and  C_18
REMARK    4  A    between atoms: C_22  and  C_23
REMARK    5  A    between atoms: C_23  and  C_25
REMARK    6  A    between atoms: C_24  and  C_27
REMARK    7  A    between atoms: C_25  and  C_26
REMARK    8  A    between atoms: C_26  and  C_28
REMARK                            x       y       z     vdW  Elec       q    Type
REMARK                         _______ _______ _______ _____ _____    ______ ____
ROOT
ATOM      1  O   UNL     1      41.527  52.108  38.572  0.00  0.00    +0.000 OA
ATOM      2  N   UNL     1      39.316  51.682  38.963  0.00  0.00    +0.000 N 
ATOM      3  N   UNL     1      36.916  50.405  38.448  0.00  0.00    +0.000 N 
ATOM      4  N   UNL     1      37.135  50.137  36.310  0.00  0.00    +0.000 NA
ATOM      5  N   UNL     1      35.819  49.712  38.127  0.00  0.00    +0.000 NA
ATOM      6  C   UNL     1      39.074  51.330  37.503  0.00  0.00    +0.000 C 
ATOM      7  C   UNL     1      37.728  50.635  37.378  0.00  0.00    +0.000 A 
ATOM      8  C   UNL     1      38.131  51.981  39.786  0.00  0.00    +0.000 C 
ATOM      9  C   UNL     1      37.166  50.817  39.803  0.00  0.00    +0.000 C 
ATOM     10  C   UNL     1      40.584  52.085  39.357  0.00  0.00    +0.000 C 
ATOM     11  C   UNL     1      35.995  49.509  36.807  0.00  0.00    +0.000 A 
ENDROOT
BRANCH  11  15
ATOM     12  F   UNL     1      33.937  49.292  35.597  0.00  0.00    +0.000 F 
ATOM     13  F   UNL     1      35.677  48.237  34.815  0.00  0.00    +0.000 F 
ATOM     14  F   UNL     1      34.685  47.517  36.622  0.00  0.00    +0.000 F 
ATOM     15  C   UNL     1      35.077  48.646  35.968  0.00  0.00    +0.000 C 
ENDBRANCH  11  15
BRANCH   6  17
ATOM     16  F   UNL     1      39.796  49.139  36.870  0.00  0.00    +0.000 F 
ATOM     17  C   UNL     1      40.191  50.448  36.844  0.00  0.00    +0.000 C 
BRANCH  17  18
ATOM     18  C   UNL     1      40.594  50.796  35.428  0.00  0.00    +0.000 C 
ATOM     19  C   UNL     1      42.040  50.600  35.035  0.00  0.00    +0.000 C 
ATOM     20  C   UNL     1      41.478  51.989  35.129  0.00  0.00    +0.000 C 
ENDBRANCH  17  18
ENDBRANCH   6  17
BRANCH  10  21
ATOM     21  C   UNL     1      40.802  52.490  40.810  0.00  0.00    +0.000 C 
BRANCH  21  22
ATOM     22  C   UNL     1      41.713  51.478  41.527  0.00  0.00    +0.000 C 
BRANCH  22  23
ATOM     23  N   UNL     1      43.099  51.663  41.057  0.00  0.00    +0.000 NA
ATOM     24  H   UNL     1      43.168  52.558  40.571  0.00  0.00    +0.000 HD
ATOM     25  H   UNL     1      43.325  50.956  40.359  0.00  0.00    +0.000 HD
ENDBRANCH  22  23
BRANCH  22  26
ATOM     26  C   UNL     1      41.237  50.026  41.256  0.00  0.00    +0.000 C 
BRANCH  26  30
ATOM     27  F   UNL     1      42.611  47.811  42.339  0.00  0.00    +0.000 F 
ATOM     28  F   UNL     1      37.989  49.261  44.832  0.00  0.00    +0.000 F 
ATOM     29  F   UNL     1      39.447  47.133  45.749  0.00  0.00    +0.000 F 
ATOM     30  C   UNL     1      40.756  49.284  42.477  0.00  0.00    +0.000 A 
ATOM     31  C   UNL     1      41.480  48.186  42.954  0.00  0.00    +0.000 A 
ATOM     32  C   UNL     1      39.555  49.634  43.114  0.00  0.00    +0.000 A 
ATOM     33  C   UNL     1      39.129  48.908  44.221  0.00  0.00    +0.000 A 
ATOM     34  C   UNL     1      41.049  47.456  44.054  0.00  0.00    +0.000 A 
ATOM     35  C   UNL     1      39.870  47.829  44.686  0.00  0.00    +0.000 A 
ENDBRANCH  26  30
ENDBRANCH  22  26
ENDBRANCH  21  22
ENDBRANCH  10  21
TORSDOF 8
ENDMDL
MODEL 5
REMARK VINA RESULT:      -7.4     24.618     27.153
REMARK  Name = 10028078
REMARK  8 active torsions:
REMARK  status: ('A' for Active; 'I' for Inactive)
REMARK    1  A    between atoms: N_13  and  C_25
REMARK    2  A    between atoms: C_14  and  C_17
REMARK    3  A    between atoms: C_17  and  C_18
REMARK    4  A    between atoms: C_22  and  C_23
REMARK    5  A    between atoms: C_23  and  C_25
REMARK    6  A    between atoms: C_24  and  C_27
REMARK    7  A    between atoms: C_25  and  C_26
REMARK    8  A    between atoms: C_26  and  C_28
REMARK                            x       y       z     vdW  Elec       q    Type
REMARK                         _______ _______ _______ _____ _____    ______ ____
ROOT
ATOM      1  O   UNL     1      38.425  52.371  42.439  0.00  0.00    +0.000 OA
ATOM      2  N   UNL     1      38.666  50.601  43.862  0.00  0.00    +0.000 N 
ATOM      3  N   UNL     1      37.695  48.644  45.561  0.00  0.00    +0.000 N 
ATOM      4  N   UNL     1      35.953  49.691  46.312  0.00  0.00    +0.000 NA
ATOM      5  N   UNL     1      37.114  47.725  46.339  0.00  0.00    +0.000 NA
ATOM      6  C   UNL     1      37.406  50.978  44.626  0.00  0.00    +0.000 C 
ATOM      7  C   UNL     1      36.993  49.811  45.508  0.00  0.00    +0.000 A 
ATOM      8  C   UNL     1      39.598  49.671  44.524  0.00  0.00    +0.000 C 
ATOM      9  C   UNL     1      38.920  48.362  44.863  0.00  0.00    +0.000 C 
ATOM     10  C   UNL     1      39.080  51.402  42.808  0.00  0.00    +0.000 C 
ATOM     11  C   UNL     1      36.009  48.372  46.755  0.00  0.00    +0.000 A 
ENDROOT
BRANCH  11  15
ATOM     12  F   UNL     1      33.761  48.428  47.587  0.00  0.00    +0.000 F 
ATOM     13  F   UNL     1      34.602  46.477  47.099  0.00  0.00    +0.000 F 
ATOM     14  F   UNL     1      35.281  47.546  48.879  0.00  0.00    +0.000 F 
ATOM     15  C   UNL     1      34.920  47.714  47.576  0.00  0.00    +0.000 C 
ENDBRANCH  11  15
BRANCH   6  17
ATOM     16  F   UNL     1      35.407  50.330  43.483  0.00  0.00    +0.000 F 
ATOM     17  C   UNL     1      36.198  51.419  43.728  0.00  0.00    +0.000 C 
BRANCH  17  18
ATOM     18  C   UNL     1      35.324  52.536  44.253  0.00  0.00    +0.000 C 
ATOM     19  C   UNL     1      34.719  53.493  43.252  0.00  0.00    +0.000 C 
ATOM     20  C   UNL     1      35.774  53.981  44.203  0.00  0.00    +0.000 C 
ENDBRANCH  17  18
ENDBRANCH   6  17
BRANCH  10  21
ATOM     21  C   UNL     1      40.374  51.047  42.086  0.00  0.00    +0.000 C 
BRANCH  21  22
ATOM     22  C   UNL     1      40.083  50.525  40.668  0.00  0.00    +0.000 C 
BRANCH  22  23
ATOM     23  N   UNL     1      40.972  49.383  40.385  0.00  0.00    +0.000 NA
ATOM     24  H   UNL     1      40.868  49.116  39.405  0.00  0.00    +0.000 HD
ATOM     25  H   UNL     1      40.673  48.569  40.921  0.00  0.00    +0.000 HD
ENDBRANCH  22  23
BRANCH  22  26
ATOM     26  C   UNL     1      40.292  51.649  39.619  0.00  0.00    +0.000 C 
BRANCH  26  30
ATOM     27  F   UNL     1      37.531  51.555  39.036  0.00  0.00    +0.000 F 
ATOM     28  F   UNL     1      40.924  50.424  34.926  0.00  0.00    +0.000 F 
ATOM     29  F   UNL     1      38.214  50.377  34.537  0.00  0.00    +0.000 F 
ATOM     30  C   UNL     1      39.757  51.335  38.245  0.00  0.00    +0.000 A 
ATOM     31  C   UNL     1      38.375  51.293  38.029  0.00  0.00    +0.000 A 
ATOM     32  C   UNL     1      40.621  51.020  37.184  0.00  0.00    +0.000 A 
ATOM     33  C   UNL     1      40.090  50.708  35.937  0.00  0.00    +0.000 A 
ATOM     34  C   UNL     1      37.846  50.972  36.785  0.00  0.00    +0.000 A 
ATOM     35  C   UNL     1      38.715  50.684  35.740  0.00  0.00    +0.000 A 
ENDBRANCH  26  30
ENDBRANCH  22  26
ENDBRANCH  21  22
ENDBRANCH  10  21
TORSDOF 8
ENDMDL
MODEL 6
REMARK VINA RESULT:      -7.0     22.419     25.034
REMARK  Name = 10028078
REMARK  8 active torsions:
REMARK  status: ('A' for Active; 'I' for Inactive)
REMARK    1  A    between atoms: N_13  and  C_25
REMARK    2  A    between atoms: C_14  and  C_17
REMARK    3  A    between atoms: C_17  and  C_18
REMARK    4  A    between atoms: C_22  and  C_23
REMARK    5  A    between atoms: C_23  and  C_25
REMARK    6  A    between atoms: C_24  and  C_27
REMARK    7  A    between atoms: C_25  and  C_26
REMARK    8  A    between atoms: C_26  and  C_28
REMARK                            x       y       z     vdW  Elec       q    Type
REMARK                         _______ _______ _______ _____ _____    ______ ____
ROOT
ATOM      1  O   UNL     1      32.012  64.662  40.124  0.00  0.00    +0.000 OA
ATOM      2  N   UNL     1      29.862  65.308  40.551  0.00  0.00    +0.000 N 
ATOM      3  N   UNL     1      27.876  66.388  42.147  0.00  0.00    +0.000 N 
ATOM      4  N   UNL     1      28.639  65.783  44.081  0.00  0.00    +0.000 NA
ATOM      5  N   UNL     1      27.005  66.949  42.992  0.00  0.00    +0.000 NA
ATOM      6  C   UNL     1      30.033  65.068  42.043  0.00  0.00    +0.000 C 
ATOM      7  C   UNL     1      28.877  65.719  42.785  0.00  0.00    +0.000 A 
ATOM      8  C   UNL     1      28.484  65.413  40.042  0.00  0.00    +0.000 C 
ATOM      9  C   UNL     1      27.729  66.532  40.724  0.00  0.00    +0.000 C 
ATOM     10  C   UNL     1      30.923  65.035  39.699  0.00  0.00    +0.000 C 
ATOM     11  C   UNL     1      27.522  66.607  44.189  0.00  0.00    +0.000 A 
ENDROOT
BRANCH  11  15
ATOM     12  F   UNL     1      26.130  66.224  46.103  0.00  0.00    +0.000 F 
ATOM     13  F   UNL     1      27.963  67.363  46.407  0.00  0.00    +0.000 F 
ATOM     14  F   UNL     1      26.272  68.273  45.367  0.00  0.00    +0.000 F 
ATOM     15  C   UNL     1      26.972  67.112  45.506  0.00  0.00    +0.000 C 
ENDBRANCH  11  15
BRANCH   6  17
ATOM     16  F   UNL     1      31.244  66.855  43.073  0.00  0.00    +0.000 F 
ATOM     17  C   UNL     1      31.395  65.566  42.640  0.00  0.00    +0.000 C 
BRANCH  17  18
ATOM     18  C   UNL     1      31.990  64.751  43.765  0.00  0.00    +0.000 C 
ATOM     19  C   UNL     1      33.403  65.069  44.200  0.00  0.00    +0.000 C 
ATOM     20  C   UNL     1      33.112  63.764  43.518  0.00  0.00    +0.000 C 
ENDBRANCH  17  18
ENDBRANCH   6  17
BRANCH  10  21
ATOM     21  C   UNL     1      30.723  65.225  38.201  0.00  0.00    +0.000 C 
BRANCH  21  22
ATOM     22  C   UNL     1      30.417  63.880  37.516  0.00  0.00    +0.000 C 
BRANCH  22  23
ATOM     23  N   UNL     1      31.676  63.130  37.350  0.00  0.00    +0.000 NA
ATOM     24  H   UNL     1      32.440  63.792  37.200  0.00  0.00    +0.000 HD
ATOM     25  H   UNL     1      31.635  62.567  36.501  0.00  0.00    +0.000 HD
ENDBRANCH  22  23
BRANCH  22  26
ATOM     26  C   UNL     1      29.737  64.111  36.141  0.00  0.00    +0.000 C 
BRANCH  26  30
ATOM     27  F   UNL     1      31.727  65.848  35.146  0.00  0.00    +0.000 F 
ATOM     28  F   UNL     1      26.786  68.005  35.926  0.00  0.00    +0.000 F 
ATOM     29  F   UNL     1      28.835  69.549  34.969  0.00  0.00    +0.000 F 
ATOM     30  C   UNL     1      29.467  65.555  35.806  0.00  0.00    +0.000 A 
ATOM     31  C   UNL     1      30.504  66.364  35.328  0.00  0.00    +0.000 A 
ATOM     32  C   UNL     1      28.204  66.128  36.024  0.00  0.00    +0.000 A 
ATOM     33  C   UNL     1      28.000  67.472  35.730  0.00  0.00    +0.000 A 
ATOM     34  C   UNL     1      30.301  67.709  35.042  0.00  0.00    +0.000 A 
ATOM     35  C   UNL     1      29.040  68.254  35.244  0.00  0.00    +0.000 A 
ENDBRANCH  26  30
ENDBRANCH  22  26
ENDBRANCH  21  22
ENDBRANCH  10  21
TORSDOF 8
ENDMDL
MODEL 7
REMARK VINA RESULT:      -6.8     23.780     26.646
REMARK  Name = 10028078
REMARK  8 active torsions:
REMARK  status: ('A' for Active; 'I' for Inactive)
REMARK    1  A    between atoms: N_13  and  C_25
REMARK    2  A    between atoms: C_14  and  C_17
REMARK    3  A    between atoms: C_17  and  C_18
REMARK    4  A    between atoms: C_22  and  C_23
REMARK    5  A    between atoms: C_23  and  C_25
REMARK    6  A    between atoms: C_24  and  C_27
REMARK    7  A    between atoms: C_25  and  C_26
REMARK    8  A    between atoms: C_26  and  C_28
REMARK                            x       y       z     vdW  Elec       q    Type
REMARK                         _______ _______ _______ _____ _____    ______ ____
ROOT
ATOM      1  O   UNL     1      37.975  53.033  41.918  0.00  0.00    +0.000 OA
ATOM      2  N   UNL     1      38.426  51.243  43.265  0.00  0.00    +0.000 N 
ATOM      3  N   UNL     1      37.710  49.221  45.013  0.00  0.00    +0.000 N 
ATOM      4  N   UNL     1      36.030  50.193  45.974  0.00  0.00    +0.000 NA
ATOM      5  N   UNL     1      37.248  48.266  45.827  0.00  0.00    +0.000 NA
ATOM      6  C   UNL     1      37.247  51.562  44.170  0.00  0.00    +0.000 C 
ATOM      7  C   UNL     1      36.971  50.364  45.065  0.00  0.00    +0.000 A 
ATOM      8  C   UNL     1      39.454  50.332  43.798  0.00  0.00    +0.000 C 
ATOM      9  C   UNL     1      38.859  48.994  44.178  0.00  0.00    +0.000 C 
ATOM     10  C   UNL     1      38.697  52.079  42.191  0.00  0.00    +0.000 C 
ATOM     11  C   UNL     1      36.175  48.867  46.377  0.00  0.00    +0.000 A 
ENDROOT
BRANCH  11  15
ATOM     12  F   UNL     1      35.752  47.840  48.502  0.00  0.00    +0.000 F 
ATOM     13  F   UNL     1      34.107  48.920  47.564  0.00  0.00    +0.000 F 
ATOM     14  F   UNL     1      34.744  46.990  46.764  0.00  0.00    +0.000 F 
ATOM     15  C   UNL     1      35.205  48.157  47.296  0.00  0.00    +0.000 C 
ENDBRANCH  11  15
BRANCH   6  17
ATOM     16  F   UNL     1      35.033  50.954  43.500  0.00  0.00    +0.000 F 
ATOM     17  C   UNL     1      35.934  51.980  43.421  0.00  0.00    +0.000 C 
BRANCH  17  18
ATOM     18  C   UNL     1      35.255  53.249  43.883  0.00  0.00    +0.000 C 
ATOM     19  C   UNL     1      35.926  54.057  44.970  0.00  0.00    +0.000 C 
ATOM     20  C   UNL     1      34.630  53.355  45.259  0.00  0.00    +0.000 C 
ENDBRANCH  17  18
ENDBRANCH   6  17
BRANCH  10  21
ATOM     21  C   UNL     1      39.914  51.782  41.323  0.00  0.00    +0.000 C 
BRANCH  21  22
ATOM     22  C   UNL     1      39.486  51.390  39.898  0.00  0.00    +0.000 C 
BRANCH  22  23
ATOM     23  N   UNL     1      38.119  50.838  39.942  0.00  0.00    +0.000 NA
ATOM     24  H   UNL     1      37.456  51.603  40.079  0.00  0.00    +0.000 HD
ATOM     25  H   UNL     1      38.014  50.237  40.758  0.00  0.00    +0.000 HD
ENDBRANCH  22  23
BRANCH  22  26
ATOM     26  C   UNL     1      40.472  50.353  39.298  0.00  0.00    +0.000 C 
BRANCH  26  30
ATOM     27  F   UNL     1      39.497  49.304  36.865  0.00  0.00    +0.000 F 
ATOM     28  F   UNL     1      43.701  52.751  36.516  0.00  0.00    +0.000 F 
ATOM     29  F   UNL     1      42.632  51.638  34.254  0.00  0.00    +0.000 F 
ATOM     30  C   UNL     1      41.045  50.732  37.957  0.00  0.00    +0.000 A 
ATOM     31  C   UNL     1      40.521  50.164  36.790  0.00  0.00    +0.000 A 
ATOM     32  C   UNL     1      42.143  51.601  37.856  0.00  0.00    +0.000 A 
ATOM     33  C   UNL     1      42.663  51.907  36.603  0.00  0.00    +0.000 A 
ATOM     34  C   UNL     1      41.048  50.463  35.539  0.00  0.00    +0.000 A 
ATOM     35  C   UNL     1      42.120  51.342  35.456  0.00  0.00    +0.000 A 
ENDBRANCH  26  30
ENDBRANCH  22  26
ENDBRANCH  21  22
ENDBRANCH  10  21
TORSDOF 8
ENDMDL
MODEL 8
REMARK VINA RESULT:      -6.7     24.067     26.673
REMARK  Name = 10028078
REMARK  8 active torsions:
REMARK  status: ('A' for Active; 'I' for Inactive)
REMARK    1  A    between atoms: N_13  and  C_25
REMARK    2  A    between atoms: C_14  and  C_17
REMARK    3  A    between atoms: C_17  and  C_18
REMARK    4  A    between atoms: C_22  and  C_23
REMARK    5  A    between atoms: C_23  and  C_25
REMARK    6  A    between atoms: C_24  and  C_27
REMARK    7  A    between atoms: C_25  and  C_26
REMARK    8  A    between atoms: C_26  and  C_28
REMARK                            x       y       z     vdW  Elec       q    Type
REMARK                         _______ _______ _______ _____ _____    ______ ____
ROOT
ATOM      1  O   UNL     1      37.848  52.532  41.584  0.00  0.00    +0.000 OA
ATOM      2  N   UNL     1      38.110  51.021  43.278  0.00  0.00    +0.000 N 
ATOM      3  N   UNL     1      37.338  49.787  45.632  0.00  0.00    +0.000 N 
ATOM      4  N   UNL     1      36.331  51.460  46.568  0.00  0.00    +0.000 NA
ATOM      5  N   UNL     1      36.857  49.246  46.755  0.00  0.00    +0.000 NA
ATOM      6  C   UNL     1      37.360  51.912  44.257  0.00  0.00    +0.000 C 
ATOM      7  C   UNL     1      37.001  51.100  45.491  0.00  0.00    +0.000 A 
ATOM      8  C   UNL     1      38.936  49.943  43.850  0.00  0.00    +0.000 C 
ATOM      9  C   UNL     1      38.106  49.007  44.699  0.00  0.00    +0.000 C 
ATOM     10  C   UNL     1      38.311  51.466  41.979  0.00  0.00    +0.000 C 
ATOM     11  C   UNL     1      36.191  50.283  47.299  0.00  0.00    +0.000 A 
ENDROOT
BRANCH  11  15
ATOM     12  F   UNL     1      35.242  48.882  48.998  0.00  0.00    +0.000 F 
ATOM     13  F   UNL     1      35.847  50.895  49.579  0.00  0.00    +0.000 F 
ATOM     14  F   UNL     1      34.066  50.601  48.349  0.00  0.00    +0.000 F 
ATOM     15  C   UNL     1      35.341  50.163  48.546  0.00  0.00    +0.000 C 
ENDBRANCH  11  15
BRANCH   6  17
ATOM     16  F   UNL     1      34.991  51.803  43.951  0.00  0.00    +0.000 F 
ATOM     17  C   UNL     1      36.073  52.592  43.675  0.00  0.00    +0.000 C 
BRANCH  17  18
ATOM     18  C   UNL     1      35.769  53.998  44.141  0.00  0.00    +0.000 C 
ATOM     19  C   UNL     1      34.324  54.368  44.385  0.00  0.00    +0.000 C 
ATOM     20  C   UNL     1      35.069  54.995  43.241  0.00  0.00    +0.000 C 
ENDBRANCH  17  18
ENDBRANCH   6  17
BRANCH  10  21
ATOM     21  C   UNL     1      39.112  50.591  41.023  0.00  0.00    +0.000 C 
BRANCH  21  22
ATOM     22  C   UNL     1      40.319  51.363  40.459  0.00  0.00    +0.000 C 
BRANCH  22  23
ATOM     23  N   UNL     1      40.801  52.312  41.480  0.00  0.00    +0.000 NA
ATOM     24  H   UNL     1      41.230  51.788  42.245  0.00  0.00    +0.000 HD
ATOM     25  H   UNL     1      40.012  52.804  41.896  0.00  0.00    +0.000 HD
ENDBRANCH  22  23
BRANCH  22  26
ATOM     26  C   UNL     1      39.927  52.115  39.160  0.00  0.00    +0.000 C 
BRANCH  26  30
ATOM     27  F   UNL     1      41.187  50.269  37.434  0.00  0.00    +0.000 F 
ATOM     28  F   UNL     1      35.790  50.799  36.908  0.00  0.00    +0.000 F 
ATOM     29  F   UNL     1      37.172  49.054  35.313  0.00  0.00    +0.000 F 
ATOM     30  C   UNL     1      39.168  51.284  38.157  0.00  0.00    +0.000 A 
ATOM     31  C   UNL     1      39.857  50.397  37.323  0.00  0.00    +0.000 A 
ATOM     32  C   UNL     1      37.780  51.429  37.997  0.00  0.00    +0.000 A 
ATOM     33  C   UNL     1      37.117  50.665  37.042  0.00  0.00    +0.000 A 
ATOM     34  C   UNL     1      39.195  49.641  36.364  0.00  0.00    +0.000 A 
ATOM     35  C   UNL     1      37.819  49.780  36.233  0.00  0.00    +0.000 A 
ENDBRANCH  26  30
ENDBRANCH  22  26
ENDBRANCH  21  22
ENDBRANCH  10  21
TORSDOF 8
ENDMDL
MODEL 9
REMARK VINA RESULT:      -6.5     24.355     27.186
REMARK  Name = 10028078
REMARK  8 active torsions:
REMARK  status: ('A' for Active; 'I' for Inactive)
REMARK    1  A    between atoms: N_13  and  C_25
REMARK    2  A    between atoms: C_14  and  C_17
REMARK    3  A    between atoms: C_17  and  C_18
REMARK    4  A    between atoms: C_22  and  C_23
REMARK    5  A    between atoms: C_23  and  C_25
REMARK    6  A    between atoms: C_24  and  C_27
REMARK    7  A    between atoms: C_25  and  C_26
REMARK    8  A    between atoms: C_26  and  C_28
REMARK                            x       y       z     vdW  Elec       q    Type
REMARK                         _______ _______ _______ _____ _____    ______ ____
ROOT
ATOM      1  O   UNL     1      36.471  53.966  49.699  0.00  0.00    +0.000 OA
ATOM      2  N   UNL     1      36.700  52.827  47.732  0.00  0.00    +0.000 N 
ATOM      3  N   UNL     1      36.390  50.606  46.111  0.00  0.00    +0.000 N 
ATOM      4  N   UNL     1      36.514  49.067  47.629  0.00  0.00    +0.000 NA
ATOM      5  N   UNL     1      36.164  49.488  45.412  0.00  0.00    +0.000 NA
ATOM      6  C   UNL     1      36.753  51.489  48.454  0.00  0.00    +0.000 C 
ATOM      7  C   UNL     1      36.565  50.371  47.442  0.00  0.00    +0.000 A 
ATOM      8  C   UNL     1      37.184  52.857  46.340  0.00  0.00    +0.000 C 
ATOM      9  C   UNL     1      36.411  51.893  45.469  0.00  0.00    +0.000 C 
ATOM     10  C   UNL     1      36.588  53.992  48.478  0.00  0.00    +0.000 C 
ATOM     11  C   UNL     1      36.193  48.548  46.377  0.00  0.00    +0.000 A 
ENDROOT
BRANCH  11  15
ATOM     12  F   UNL     1      35.213  46.512  47.176  0.00  0.00    +0.000 F 
ATOM     13  F   UNL     1      35.051  46.934  45.044  0.00  0.00    +0.000 F 
ATOM     14  F   UNL     1      36.971  46.338  45.897  0.00  0.00    +0.000 F 
ATOM     15  C   UNL     1      35.861  47.093  46.129  0.00  0.00    +0.000 C 
ENDBRANCH  11  15
BRANCH   6  17
ATOM     16  F   UNL     1      34.629  50.644  49.157  0.00  0.00    +0.000 F 
ATOM     17  C   UNL     1      35.718  51.329  49.621  0.00  0.00    +0.000 C 
BRANCH  17  18
ATOM     18  C   UNL     1      36.205  50.652  50.883  0.00  0.00    +0.000 C 
ATOM     19  C   UNL     1      35.281  49.666  51.560  0.00  0.00    +0.000 C 
ATOM     20  C   UNL     1      35.599  50.970  52.234  0.00  0.00    +0.000 C 
ENDBRANCH  17  18
ENDBRANCH   6  17
BRANCH  10  21
ATOM     21  C   UNL     1      36.593  55.329  47.748  0.00  0.00    +0.000 C 
BRANCH  21  22
ATOM     22  C   UNL     1      35.157  55.842  47.538  0.00  0.00    +0.000 C 
BRANCH  22  23
ATOM     23  N   UNL     1      34.327  55.426  48.685  0.00  0.00    +0.000 NA
ATOM     24  H   UNL     1      34.693  54.549  49.058  0.00  0.00    +0.000 HD
ATOM     25  H   UNL     1      33.381  55.215  48.370  0.00  0.00    +0.000 HD
ENDBRANCH  22  23
BRANCH  22  26
ATOM     26  C   UNL     1      34.567  55.289  46.213  0.00  0.00    +0.000 C 
BRANCH  26  30
ATOM     27  F   UNL     1      34.648  53.963  43.722  0.00  0.00    +0.000 F 
ATOM     28  F   UNL     1      36.711  59.003  43.862  0.00  0.00    +0.000 F 
ATOM     29  F   UNL     1      36.710  57.572  41.528  0.00  0.00    +0.000 F 
ATOM     30  C   UNL     1      35.119  55.929  44.965  0.00  0.00    +0.000 A 
ATOM     31  C   UNL     1      35.139  55.209  43.765  0.00  0.00    +0.000 A 
ATOM     32  C   UNL     1      35.674  57.218  44.994  0.00  0.00    +0.000 A 
ATOM     33  C   UNL     1      36.198  57.765  43.828  0.00  0.00    +0.000 A 
ATOM     34  C   UNL     1      35.672  55.754  42.603  0.00  0.00    +0.000 A 
ATOM     35  C   UNL     1      36.197  57.038  42.644  0.00  0.00    +0.000 A 
ENDBRANCH  26  30
ENDBRANCH  22  26
ENDBRANCH  21  22
ENDBRANCH  10  21
TORSDOF 8
ENDMDL
