MODEL 1
REMARK VINA RESULT:      -8.3      0.000      0.000
REMARK  Name = 20628248
REMARK  7 active torsions:
REMARK  status: ('A' for Active; 'I' for Inactive)
REMARK    1  A    between atoms: N_11  and  C_18
REMARK    2  A    between atoms: C_16  and  C_17
REMARK    3  A    between atoms: C_16  and  C_18
REMARK    4  A    between atoms: C_18  and  C_20
REMARK    5  A    between atoms: C_19  and  C_21
REMARK    6  A    between atoms: C_20  and  C_22
REMARK    7  A    between atoms: C_21  and  C_23
REMARK                            x       y       z     vdW  Elec       q    Type
REMARK                         _______ _______ _______ _____ _____    ______ ____
ROOT
ATOM      1  O   UNL     1      41.246  53.555  37.613  0.00  0.00    +0.000 OA
ATOM      2  N   UNL     1      40.131  51.693  36.902  0.00  0.00    +0.000 N 
ATOM      3  N   UNL     1      37.603  50.555  37.038  0.00  0.00    +0.000 N 
ATOM      4  N   UNL     1      37.384  50.701  39.201  0.00  0.00    +0.000 NA
ATOM      5  N   UNL     1      36.224  50.180  38.678  0.00  0.00    +0.000 NA
ATOM      6  C   UNL     1      39.744  50.705  35.887  0.00  0.00    +0.000 C 
ATOM      7  C   UNL     1      38.223  50.678  35.739  0.00  0.00    +0.000 C 
ATOM      8  C   UNL     1      39.600  51.465  38.259  0.00  0.00    +0.000 C 
ATOM      9  C   UNL     1      38.210  50.931  38.205  0.00  0.00    +0.000 A 
ATOM     10  C   UNL     1      41.011  52.749  36.716  0.00  0.00    +0.000 C 
ATOM     11  C   UNL     1      36.364  50.086  37.372  0.00  0.00    +0.000 A 
ENDROOT
BRANCH  10  12
ATOM     12  C   UNL     1      41.664  52.879  35.344  0.00  0.00    +0.000 C 
BRANCH  12  13
ATOM     13  C   UNL     1      43.197  52.721  35.375  0.00  0.00    +0.000 C 
BRANCH  13  14
ATOM     14  N   UNL     1      43.786  53.323  34.163  0.00  0.00    +0.000 NA
ATOM     15  H   UNL     1      44.798  53.379  34.241  0.00  0.00    +0.000 HD
ATOM     16  H   UNL     1      43.431  54.263  34.004  0.00  0.00    +0.000 HD
ENDBRANCH  13  14
BRANCH  13  17
ATOM     17  C   UNL     1      43.632  51.237  35.484  0.00  0.00    +0.000 C 
BRANCH  17  20
ATOM     18  F   UNL     1      46.442  51.612  35.276  0.00  0.00    +0.000 F 
ATOM     19  F   UNL     1      44.583  49.854  40.086  0.00  0.00    +0.000 F 
ATOM     20  C   UNL     1      44.595  50.968  36.618  0.00  0.00    +0.000 A 
ATOM     21  C   UNL     1      45.966  51.179  36.452  0.00  0.00    +0.000 A 
ATOM     22  C   UNL     1      44.133  50.505  37.862  0.00  0.00    +0.000 A 
ATOM     23  C   UNL     1      45.036  50.281  38.899  0.00  0.00    +0.000 A 
ATOM     24  C   UNL     1      46.868  50.946  37.491  0.00  0.00    +0.000 A 
ATOM     25  C   UNL     1      46.398  50.497  38.724  0.00  0.00    +0.000 A 
ENDBRANCH  17  20
ENDBRANCH  13  17
ENDBRANCH  12  13
ENDBRANCH  10  12
BRANCH  11  26
ATOM     26  C   UNL     1      35.358  49.559  36.415  0.00  0.00    +0.000 C 
BRANCH  26  30
ATOM     27  F   UNL     1      34.586  47.283  36.337  0.00  0.00    +0.000 F 
ATOM     28  F   UNL     1      36.691  47.646  36.709  0.00  0.00    +0.000 F 
ATOM     29  F   UNL     1      35.873  47.983  34.716  0.00  0.00    +0.000 F 
ATOM     30  C   UNL     1      35.607  48.111  36.035  0.00  0.00    +0.000 C 
ENDBRANCH  26  30
ENDBRANCH  11  26
TORSDOF 7
ENDMDL
MODEL 2
REMARK VINA RESULT:      -7.9     22.215     25.922
REMARK  Name = 20628248
REMARK  7 active torsions:
REMARK  status: ('A' for Active; 'I' for Inactive)
REMARK    1  A    between atoms: N_11  and  C_18
REMARK    2  A    between atoms: C_16  and  C_17
REMARK    3  A    between atoms: C_16  and  C_18
REMARK    4  A    between atoms: C_18  and  C_20
REMARK    5  A    between atoms: C_19  and  C_21
REMARK    6  A    between atoms: C_20  and  C_22
REMARK    7  A    between atoms: C_21  and  C_23
REMARK                            x       y       z     vdW  Elec       q    Type
REMARK                         _______ _______ _______ _____ _____    ______ ____
ROOT
ATOM      1  O   UNL     1      52.533  72.431  37.460  0.00  0.00    +0.000 OA
ATOM      2  N   UNL     1      53.790  71.047  38.774  0.00  0.00    +0.000 N 
ATOM      3  N   UNL     1      56.053  71.126  40.378  0.00  0.00    +0.000 N 
ATOM      4  N   UNL     1      57.366  72.052  38.905  0.00  0.00    +0.000 NA
ATOM      5  N   UNL     1      58.065  71.896  40.078  0.00  0.00    +0.000 NA
ATOM      6  C   UNL     1      53.958  70.021  39.810  0.00  0.00    +0.000 C 
ATOM      7  C   UNL     1      54.847  70.555  40.932  0.00  0.00    +0.000 C 
ATOM      8  C   UNL     1      55.027  71.512  38.118  0.00  0.00    +0.000 C 
ATOM      9  C   UNL     1      56.149  71.591  39.094  0.00  0.00    +0.000 A 
ATOM     10  C   UNL     1      52.580  71.539  38.304  0.00  0.00    +0.000 C 
ATOM     11  C   UNL     1      57.271  71.328  40.962  0.00  0.00    +0.000 A 
ENDROOT
BRANCH  10  12
ATOM     12  C   UNL     1      51.308  70.937  38.891  0.00  0.00    +0.000 C 
BRANCH  12  13
ATOM     13  C   UNL     1      50.378  70.312  37.833  0.00  0.00    +0.000 C 
BRANCH  13  14
ATOM     14  N   UNL     1      51.047  70.312  36.517  0.00  0.00    +0.000 NA
ATOM     15  H   UNL     1      51.689  71.097  36.437  0.00  0.00    +0.000 HD
ATOM     16  H   UNL     1      50.375  70.379  35.757  0.00  0.00    +0.000 HD
ENDBRANCH  13  14
BRANCH  13  17
ATOM     17  C   UNL     1      49.022  71.057  37.729  0.00  0.00    +0.000 C 
BRANCH  17  20
ATOM     18  F   UNL     1      48.049  69.837  40.106  0.00  0.00    +0.000 F 
ATOM     19  F   UNL     1      48.602  75.256  40.214  0.00  0.00    +0.000 F 
ATOM     20  C   UNL     1      48.659  71.831  38.975  0.00  0.00    +0.000 A 
ATOM     21  C   UNL     1      48.191  71.171  40.113  0.00  0.00    +0.000 A 
ATOM     22  C   UNL     1      48.786  73.230  39.017  0.00  0.00    +0.000 A 
ATOM     23  C   UNL     1      48.462  73.923  40.181  0.00  0.00    +0.000 A 
ATOM     24  C   UNL     1      47.860  71.868  41.275  0.00  0.00    +0.000 A 
ATOM     25  C   UNL     1      48.001  73.255  41.309  0.00  0.00    +0.000 A 
ENDBRANCH  17  20
ENDBRANCH  13  17
ENDBRANCH  12  13
ENDBRANCH  10  12
BRANCH  11  26
ATOM     26  C   UNL     1      57.626  70.962  42.357  0.00  0.00    +0.000 C 
BRANCH  26  30
ATOM     27  F   UNL     1      57.561  71.765  44.624  0.00  0.00    +0.000 F 
ATOM     28  F   UNL     1      56.287  72.723  43.152  0.00  0.00    +0.000 F 
ATOM     29  F   UNL     1      58.440  73.064  43.103  0.00  0.00    +0.000 F 
ATOM     30  C   UNL     1      57.495  72.124  43.324  0.00  0.00    +0.000 C 
ENDBRANCH  26  30
ENDBRANCH  11  26
TORSDOF 7
ENDMDL
MODEL 3
REMARK VINA RESULT:      -7.7      5.552      8.173
REMARK  Name = 20628248
REMARK  7 active torsions:
REMARK  status: ('A' for Active; 'I' for Inactive)
REMARK    1  A    between atoms: N_11  and  C_18
REMARK    2  A    between atoms: C_16  and  C_17
REMARK    3  A    between atoms: C_16  and  C_18
REMARK    4  A    between atoms: C_18  and  C_20
REMARK    5  A    between atoms: C_19  and  C_21
REMARK    6  A    between atoms: C_20  and  C_22
REMARK    7  A    between atoms: C_21  and  C_23
REMARK                            x       y       z     vdW  Elec       q    Type
REMARK                         _______ _______ _______ _____ _____    ______ ____
ROOT
ATOM      1  O   UNL     1      48.958  51.509  33.639  0.00  0.00    +0.000 OA
ATOM      2  N   UNL     1      47.416  51.736  35.309  0.00  0.00    +0.000 N 
ATOM      3  N   UNL     1      44.665  51.710  35.672  0.00  0.00    +0.000 N 
ATOM      4  N   UNL     1      44.197  53.153  34.108  0.00  0.00    +0.000 NA
ATOM      5  N   UNL     1      43.019  52.708  34.659  0.00  0.00    +0.000 NA
ATOM      6  C   UNL     1      46.881  51.449  36.647  0.00  0.00    +0.000 C 
ATOM      7  C   UNL     1      45.471  50.874  36.532  0.00  0.00    +0.000 C 
ATOM      8  C   UNL     1      46.652  52.706  34.504  0.00  0.00    +0.000 C 
ATOM      9  C   UNL     1      45.187  52.543  34.720  0.00  0.00    +0.000 A 
ATOM     10  C   UNL     1      48.606  51.249  34.788  0.00  0.00    +0.000 C 
ATOM     11  C   UNL     1      43.306  51.843  35.609  0.00  0.00    +0.000 A 
ENDROOT
BRANCH  10  12
ATOM     12  C   UNL     1      49.456  50.366  35.695  0.00  0.00    +0.000 C 
BRANCH  12  13
ATOM     13  C   UNL     1      50.715  49.806  35.005  0.00  0.00    +0.000 C 
BRANCH  13  14
ATOM     14  N   UNL     1      50.329  49.056  33.794  0.00  0.00    +0.000 NA
ATOM     15  H   UNL     1      51.027  49.166  33.062  0.00  0.00    +0.000 HD
ATOM     16  H   UNL     1      49.437  49.377  33.426  0.00  0.00    +0.000 HD
ENDBRANCH  13  14
BRANCH  13  17
ATOM     17  C   UNL     1      51.541  48.890  35.945  0.00  0.00    +0.000 C 
BRANCH  17  20
ATOM     18  F   UNL     1      53.387  47.070  34.778  0.00  0.00    +0.000 F 
ATOM     19  F   UNL     1      55.480  51.666  36.822  0.00  0.00    +0.000 F 
ATOM     20  C   UNL     1      53.030  49.140  35.880  0.00  0.00    +0.000 A 
ATOM     21  C   UNL     1      53.884  48.207  35.287  0.00  0.00    +0.000 A 
ATOM     22  C   UNL     1      53.588  50.316  36.411  0.00  0.00    +0.000 A 
ATOM     23  C   UNL     1      54.961  50.534  36.326  0.00  0.00    +0.000 A 
ATOM     24  C   UNL     1      55.260  48.425  35.210  0.00  0.00    +0.000 A 
ATOM     25  C   UNL     1      55.801  49.600  35.730  0.00  0.00    +0.000 A 
ENDBRANCH  17  20
ENDBRANCH  13  17
ENDBRANCH  12  13
ENDBRANCH  10  12
BRANCH  11  26
ATOM     26  C   UNL     1      42.332  51.130  36.474  0.00  0.00    +0.000 C 
BRANCH  26  30
ATOM     27  F   UNL     1      40.169  50.950  35.437  0.00  0.00    +0.000 F 
ATOM     28  F   UNL     1      41.011  49.188  36.380  0.00  0.00    +0.000 F 
ATOM     29  F   UNL     1      41.844  49.907  34.498  0.00  0.00    +0.000 F 
ATOM     30  C   UNL     1      41.331  50.308  35.682  0.00  0.00    +0.000 C 
ENDBRANCH  26  30
ENDBRANCH  11  26
TORSDOF 7
ENDMDL
MODEL 4
REMARK VINA RESULT:      -7.2      6.233     11.935
REMARK  Name = 20628248
REMARK  7 active torsions:
REMARK  status: ('A' for Active; 'I' for Inactive)
REMARK    1  A    between atoms: N_11  and  C_18
REMARK    2  A    between atoms: C_16  and  C_17
REMARK    3  A    between atoms: C_16  and  C_18
REMARK    4  A    between atoms: C_18  and  C_20
REMARK    5  A    between atoms: C_19  and  C_21
REMARK    6  A    between atoms: C_20  and  C_22
REMARK    7  A    between atoms: C_21  and  C_23
REMARK                            x       y       z     vdW  Elec       q    Type
REMARK                         _______ _______ _______ _____ _____    ______ ____
ROOT
ATOM      1  O   UNL     1      50.237  54.874  36.468  0.00  0.00    +0.000 OA
ATOM      2  N   UNL     1      50.916  53.021  35.318  0.00  0.00    +0.000 N 
ATOM      3  N   UNL     1      52.387  50.701  35.714  0.00  0.00    +0.000 N 
ATOM      4  N   UNL     1      54.149  51.668  36.557  0.00  0.00    +0.000 NA
ATOM      5  N   UNL     1      54.346  50.307  36.574  0.00  0.00    +0.000 NA
ATOM      6  C   UNL     1      50.691  51.878  34.423  0.00  0.00    +0.000 C 
ATOM      7  C   UNL     1      51.071  50.579  35.131  0.00  0.00    +0.000 C 
ATOM      8  C   UNL     1      52.302  53.210  35.786  0.00  0.00    +0.000 C 
ATOM      9  C   UNL     1      52.961  51.899  36.043  0.00  0.00    +0.000 A 
ATOM     10  C   UNL     1      49.971  53.971  35.678  0.00  0.00    +0.000 C 
ATOM     11  C   UNL     1      53.283  49.728  36.056  0.00  0.00    +0.000 A 
ENDROOT
BRANCH  10  12
ATOM     12  C   UNL     1      48.582  53.841  35.062  0.00  0.00    +0.000 C 
BRANCH  12  13
ATOM     13  C   UNL     1      47.534  53.252  36.027  0.00  0.00    +0.000 C 
BRANCH  13  14
ATOM     14  N   UNL     1      48.073  53.240  37.402  0.00  0.00    +0.000 NA
ATOM     15  H   UNL     1      48.077  54.177  37.798  0.00  0.00    +0.000 HD
ATOM     16  H   UNL     1      49.026  52.886  37.425  0.00  0.00    +0.000 HD
ENDBRANCH  13  14
BRANCH  13  17
ATOM     17  C   UNL     1      47.104  51.819  35.623  0.00  0.00    +0.000 C 
BRANCH  17  20
ATOM     18  F   UNL     1      45.771  52.409  33.182  0.00  0.00    +0.000 F 
ATOM     19  F   UNL     1      42.651  50.617  37.273  0.00  0.00    +0.000 F 
ATOM     20  C   UNL     1      45.613  51.665  35.429  0.00  0.00    +0.000 A 
ATOM     21  C   UNL     1      45.019  51.968  34.201  0.00  0.00    +0.000 A 
ATOM     22  C   UNL     1      44.792  51.213  36.477  0.00  0.00    +0.000 A 
ATOM     23  C   UNL     1      43.422  51.063  36.271  0.00  0.00    +0.000 A 
ATOM     24  C   UNL     1      43.647  51.822  34.001  0.00  0.00    +0.000 A 
ATOM     25  C   UNL     1      42.843  51.363  35.044  0.00  0.00    +0.000 A 
ENDBRANCH  17  20
ENDBRANCH  13  17
ENDBRANCH  12  13
ENDBRANCH  10  12
BRANCH  11  26
ATOM     26  C   UNL     1      53.081  48.268  35.867  0.00  0.00    +0.000 C 
BRANCH  26  30
ATOM     27  F   UNL     1      53.512  48.195  33.502  0.00  0.00    +0.000 F 
ATOM     28  F   UNL     1      53.709  46.361  34.644  0.00  0.00    +0.000 F 
ATOM     29  F   UNL     1      55.205  47.934  34.859  0.00  0.00    +0.000 F 
ATOM     30  C   UNL     1      53.881  47.708  34.705  0.00  0.00    +0.000 C 
ENDBRANCH  26  30
ENDBRANCH  11  26
TORSDOF 7
ENDMDL
MODEL 5
REMARK VINA RESULT:      -6.7     14.751     17.591
REMARK  Name = 20628248
REMARK  7 active torsions:
REMARK  status: ('A' for Active; 'I' for Inactive)
REMARK    1  A    between atoms: N_11  and  C_18
REMARK    2  A    between atoms: C_16  and  C_17
REMARK    3  A    between atoms: C_16  and  C_18
REMARK    4  A    between atoms: C_18  and  C_20
REMARK    5  A    between atoms: C_19  and  C_21
REMARK    6  A    between atoms: C_20  and  C_22
REMARK    7  A    between atoms: C_21  and  C_23
REMARK                            x       y       z     vdW  Elec       q    Type
REMARK                         _______ _______ _______ _____ _____    ______ ____
ROOT
ATOM      1  O   UNL     1      52.054  55.394  47.901  0.00  0.00    +0.000 OA
ATOM      2  N   UNL     1      50.903  54.465  49.642  0.00  0.00    +0.000 N 
ATOM      3  N   UNL     1      49.885  55.168  52.126  0.00  0.00    +0.000 N 
ATOM      4  N   UNL     1      51.723  56.039  52.907  0.00  0.00    +0.000 NA
ATOM      5  N   UNL     1      50.732  56.191  53.848  0.00  0.00    +0.000 NA
ATOM      6  C   UNL     1      49.814  53.662  50.213  0.00  0.00    +0.000 C 
ATOM      7  C   UNL     1      49.001  54.509  51.192  0.00  0.00    +0.000 C 
ATOM      8  C   UNL     1      51.878  55.008  50.606  0.00  0.00    +0.000 C 
ATOM      9  C   UNL     1      51.204  55.426  51.867  0.00  0.00    +0.000 A 
ATOM     10  C   UNL     1      51.139  54.672  48.290  0.00  0.00    +0.000 C 
ATOM     11  C   UNL     1      49.626  55.656  53.376  0.00  0.00    +0.000 A 
ENDROOT
BRANCH  10  12
ATOM     12  C   UNL     1      50.205  53.977  47.305  0.00  0.00    +0.000 C 
BRANCH  12  13
ATOM     13  C   UNL     1      50.939  53.076  46.293  0.00  0.00    +0.000 C 
BRANCH  13  14
ATOM     14  N   UNL     1      49.959  52.259  45.551  0.00  0.00    +0.000 NA
ATOM     15  H   UNL     1      49.356  52.845  44.979  0.00  0.00    +0.000 HD
ATOM     16  H   UNL     1      49.368  51.722  46.181  0.00  0.00    +0.000 HD
ENDBRANCH  13  14
BRANCH  13  17
ATOM     17  C   UNL     1      51.978  52.150  46.977  0.00  0.00    +0.000 C 
BRANCH  17  20
ATOM     18  F   UNL     1      52.631  49.425  46.500  0.00  0.00    +0.000 F 
ATOM     19  F   UNL     1      55.638  53.133  43.874  0.00  0.00    +0.000 F 
ATOM     20  C   UNL     1      53.094  51.709  46.059  0.00  0.00    +0.000 A 
ATOM     21  C   UNL     1      53.361  50.352  45.863  0.00  0.00    +0.000 A 
ATOM     22  C   UNL     1      53.886  52.653  45.382  0.00  0.00    +0.000 A 
ATOM     23  C   UNL     1      54.899  52.224  44.527  0.00  0.00    +0.000 A 
ATOM     24  C   UNL     1      54.381  49.926  45.012  0.00  0.00    +0.000 A 
ATOM     25  C   UNL     1      55.153  50.871  44.336  0.00  0.00    +0.000 A 
ENDBRANCH  17  20
ENDBRANCH  13  17
ENDBRANCH  12  13
ENDBRANCH  10  12
BRANCH  11  26
ATOM     26  C   UNL     1      48.316  55.585  54.071  0.00  0.00    +0.000 C 
BRANCH  26  30
ATOM     27  F   UNL     1      48.372  57.277  55.780  0.00  0.00    +0.000 F 
ATOM     28  F   UNL     1      46.498  56.912  54.750  0.00  0.00    +0.000 F 
ATOM     29  F   UNL     1      48.124  57.924  53.708  0.00  0.00    +0.000 F 
ATOM     30  C   UNL     1      47.846  56.934  54.585  0.00  0.00    +0.000 C 
ENDBRANCH  26  30
ENDBRANCH  11  26
TORSDOF 7
ENDMDL
MODEL 6
REMARK VINA RESULT:      -6.7      4.333      6.832
REMARK  Name = 20628248
REMARK  7 active torsions:
REMARK  status: ('A' for Active; 'I' for Inactive)
REMARK    1  A    between atoms: N_11  and  C_18
REMARK    2  A    between atoms: C_16  and  C_17
REMARK    3  A    between atoms: C_16  and  C_18
REMARK    4  A    between atoms: C_18  and  C_20
REMARK    5  A    between atoms: C_19  and  C_21
REMARK    6  A    between atoms: C_20  and  C_22
REMARK    7  A    between atoms: C_21  and  C_23
REMARK                            x       y       z     vdW  Elec       q    Type
REMARK                         _______ _______ _______ _____ _____    ______ ____
ROOT
ATOM      1  O   UNL     1      47.237  51.773  33.825  0.00  0.00    +0.000 OA
ATOM      2  N   UNL     1      45.770  52.300  35.494  0.00  0.00    +0.000 N 
ATOM      3  N   UNL     1      43.424  51.351  36.633  0.00  0.00    +0.000 N 
ATOM      4  N   UNL     1      42.306  51.162  34.773  0.00  0.00    +0.000 NA
ATOM      5  N   UNL     1      41.519  50.707  35.804  0.00  0.00    +0.000 NA
ATOM      6  C   UNL     1      45.436  52.704  36.866  0.00  0.00    +0.000 C 
ATOM      7  C   UNL     1      44.531  51.655  37.511  0.00  0.00    +0.000 C 
ATOM      8  C   UNL     1      44.629  52.136  34.574  0.00  0.00    +0.000 C 
ATOM      9  C   UNL     1      43.457  51.544  35.279  0.00  0.00    +0.000 A 
ATOM     10  C   UNL     1      47.049  52.155  34.977  0.00  0.00    +0.000 C 
ATOM     11  C   UNL     1      42.195  50.831  36.927  0.00  0.00    +0.000 A 
ENDROOT
BRANCH  10  12
ATOM     12  C   UNL     1      48.216  52.476  35.905  0.00  0.00    +0.000 C 
BRANCH  12  13
ATOM     13  C   UNL     1      49.543  51.819  35.474  0.00  0.00    +0.000 C 
BRANCH  13  14
ATOM     14  N   UNL     1      50.038  52.458  34.239  0.00  0.00    +0.000 NA
ATOM     15  H   UNL     1      50.442  51.768  33.611  0.00  0.00    +0.000 HD
ATOM     16  H   UNL     1      50.751  53.155  34.440  0.00  0.00    +0.000 HD
ENDBRANCH  13  14
BRANCH  13  17
ATOM     17  C   UNL     1      49.396  50.292  35.250  0.00  0.00    +0.000 C 
BRANCH  17  20
ATOM     18  F   UNL     1      50.783  49.766  37.676  0.00  0.00    +0.000 F 
ATOM     19  F   UNL     1      53.085  47.883  33.111  0.00  0.00    +0.000 F 
ATOM     20  C   UNL     1      50.706  49.542  35.315  0.00  0.00    +0.000 A 
ATOM     21  C   UNL     1      51.335  49.311  36.542  0.00  0.00    +0.000 A 
ATOM     22  C   UNL     1      51.319  49.057  34.147  0.00  0.00    +0.000 A 
ATOM     23  C   UNL     1      52.518  48.353  34.231  0.00  0.00    +0.000 A 
ATOM     24  C   UNL     1      52.539  48.611  36.622  0.00  0.00    +0.000 A 
ATOM     25  C   UNL     1      53.133  48.126  35.457  0.00  0.00    +0.000 A 
ENDBRANCH  17  20
ENDBRANCH  13  17
ENDBRANCH  12  13
ENDBRANCH  10  12
BRANCH  11  26
ATOM     26  C   UNL     1      41.716  50.474  38.287  0.00  0.00    +0.000 C 
BRANCH  26  30
ATOM     27  F   UNL     1      41.345  48.625  39.780  0.00  0.00    +0.000 F 
ATOM     28  F   UNL     1      43.236  48.735  38.723  0.00  0.00    +0.000 F 
ATOM     29  F   UNL     1      41.420  48.210  37.636  0.00  0.00    +0.000 F 
ATOM     30  C   UNL     1      41.909  49.004  38.614  0.00  0.00    +0.000 C 
ENDBRANCH  26  30
ENDBRANCH  11  26
TORSDOF 7
ENDMDL
MODEL 7
REMARK VINA RESULT:      -6.5     19.066     23.162
REMARK  Name = 20628248
REMARK  7 active torsions:
REMARK  status: ('A' for Active; 'I' for Inactive)
REMARK    1  A    between atoms: N_11  and  C_18
REMARK    2  A    between atoms: C_16  and  C_17
REMARK    3  A    between atoms: C_16  and  C_18
REMARK    4  A    between atoms: C_18  and  C_20
REMARK    5  A    between atoms: C_19  and  C_21
REMARK    6  A    between atoms: C_20  and  C_22
REMARK    7  A    between atoms: C_21  and  C_23
REMARK                            x       y       z     vdW  Elec       q    Type
REMARK                         _______ _______ _______ _____ _____    ______ ____
ROOT
ATOM      1  O   UNL     1      49.278  70.644  37.503  0.00  0.00    +0.000 OA
ATOM      2  N   UNL     1      51.314  69.961  38.282  0.00  0.00    +0.000 N 
ATOM      3  N   UNL     1      53.920  70.889  38.501  0.00  0.00    +0.000 N 
ATOM      4  N   UNL     1      54.147  71.479  36.416  0.00  0.00    +0.000 NA
ATOM      5  N   UNL     1      55.295  71.815  37.093  0.00  0.00    +0.000 NA
ATOM      6  C   UNL     1      52.197  69.359  39.289  0.00  0.00    +0.000 C 
ATOM      7  C   UNL     1      53.288  70.353  39.685  0.00  0.00    +0.000 C 
ATOM      8  C   UNL     1      51.959  70.370  37.020  0.00  0.00    +0.000 C 
ATOM      9  C   UNL     1      53.318  70.926  37.273  0.00  0.00    +0.000 A 
ATOM     10  C   UNL     1      49.936  70.089  38.380  0.00  0.00    +0.000 C 
ATOM     11  C   UNL     1      55.157  71.449  38.350  0.00  0.00    +0.000 A 
ENDROOT
BRANCH  10  12
ATOM     12  C   UNL     1      49.270  69.523  39.630  0.00  0.00    +0.000 C 
BRANCH  12  13
ATOM     13  C   UNL     1      47.735  69.659  39.625  0.00  0.00    +0.000 C 
BRANCH  13  14
ATOM     14  N   UNL     1      47.359  71.076  39.803  0.00  0.00    +0.000 NA
ATOM     15  H   UNL     1      47.049  71.482  38.924  0.00  0.00    +0.000 HD
ATOM     16  H   UNL     1      48.142  71.628  40.145  0.00  0.00    +0.000 HD
ENDBRANCH  13  14
BRANCH  13  17
ATOM     17  C   UNL     1      47.066  68.799  40.728  0.00  0.00    +0.000 C 
BRANCH  17  20
ATOM     18  F   UNL     1      44.940  67.665  42.238  0.00  0.00    +0.000 F 
ATOM     19  F   UNL     1      45.541  65.833  37.142  0.00  0.00    +0.000 F 
ATOM     20  C   UNL     1      46.134  67.739  40.189  0.00  0.00    +0.000 A 
ATOM     21  C   UNL     1      45.104  67.225  40.981  0.00  0.00    +0.000 A 
ATOM     22  C   UNL     1      46.281  67.248  38.880  0.00  0.00    +0.000 A 
ATOM     23  C   UNL     1      45.401  66.282  38.397  0.00  0.00    +0.000 A 
ATOM     24  C   UNL     1      44.229  66.254  40.497  0.00  0.00    +0.000 A 
ATOM     25  C   UNL     1      44.377  65.782  39.193  0.00  0.00    +0.000 A 
ENDBRANCH  17  20
ENDBRANCH  13  17
ENDBRANCH  12  13
ENDBRANCH  10  12
BRANCH  11  26
ATOM     26  C   UNL     1      56.166  71.608  39.429  0.00  0.00    +0.000 C 
BRANCH  26  30
ATOM     27  F   UNL     1      57.006  69.547  38.518  0.00  0.00    +0.000 F 
ATOM     28  F   UNL     1      57.426  70.004  40.596  0.00  0.00    +0.000 F 
ATOM     29  F   UNL     1      58.450  71.108  39.019  0.00  0.00    +0.000 F 
ATOM     30  C   UNL     1      57.264  70.563  39.368  0.00  0.00    +0.000 C 
ENDBRANCH  26  30
ENDBRANCH  11  26
TORSDOF 7
ENDMDL
MODEL 8
REMARK VINA RESULT:      -6.3     21.309     25.195
REMARK  Name = 20628248
REMARK  7 active torsions:
REMARK  status: ('A' for Active; 'I' for Inactive)
REMARK    1  A    between atoms: N_11  and  C_18
REMARK    2  A    between atoms: C_16  and  C_17
REMARK    3  A    between atoms: C_16  and  C_18
REMARK    4  A    between atoms: C_18  and  C_20
REMARK    5  A    between atoms: C_19  and  C_21
REMARK    6  A    between atoms: C_20  and  C_22
REMARK    7  A    between atoms: C_21  and  C_23
REMARK                            x       y       z     vdW  Elec       q    Type
REMARK                         _______ _______ _______ _____ _____    ______ ____
ROOT
ATOM      1  O   UNL     1      52.131  67.211  41.024  0.00  0.00    +0.000 OA
ATOM      2  N   UNL     1      53.098  69.070  41.934  0.00  0.00    +0.000 N 
ATOM      3  N   UNL     1      55.617  70.144  42.383  0.00  0.00    +0.000 N 
ATOM      4  N   UNL     1      56.465  68.386  43.353  0.00  0.00    +0.000 NA
ATOM      5  N   UNL     1      57.445  69.344  43.250  0.00  0.00    +0.000 NA
ATOM      6  C   UNL     1      53.225  70.520  42.127  0.00  0.00    +0.000 C 
ATOM      7  C   UNL     1      54.630  70.977  41.736  0.00  0.00    +0.000 C 
ATOM      8  C   UNL     1      54.024  68.231  42.718  0.00  0.00    +0.000 C 
ATOM      9  C   UNL     1      55.365  68.872  42.822  0.00  0.00    +0.000 A 
ATOM     10  C   UNL     1      52.137  68.432  41.162  0.00  0.00    +0.000 C 
ATOM     11  C   UNL     1      56.927  70.407  42.672  0.00  0.00    +0.000 A 
ENDROOT
BRANCH  10  12
ATOM     12  C   UNL     1      51.096  69.312  40.479  0.00  0.00    +0.000 C 
BRANCH  12  13
ATOM     13  C   UNL     1      49.706  69.247  41.141  0.00  0.00    +0.000 C 
BRANCH  13  14
ATOM     14  N   UNL     1      49.433  67.870  41.595  0.00  0.00    +0.000 NA
ATOM     15  H   UNL     1      49.833  67.705  42.514  0.00  0.00    +0.000 HD
ATOM     16  H   UNL     1      49.824  67.182  40.954  0.00  0.00    +0.000 HD
ENDBRANCH  13  14
BRANCH  13  17
ATOM     17  C   UNL     1      48.578  69.715  40.184  0.00  0.00    +0.000 C 
BRANCH  17  20
ATOM     18  F   UNL     1      49.142  70.946  37.684  0.00  0.00    +0.000 F 
ATOM     19  F   UNL     1      47.884  74.286  41.801  0.00  0.00    +0.000 F 
ATOM     20  C   UNL     1      48.549  71.210  39.966  0.00  0.00    +0.000 A 
ATOM     21  C   UNL     1      48.831  71.753  38.710  0.00  0.00    +0.000 A 
ATOM     22  C   UNL     1      48.236  72.087  41.019  0.00  0.00    +0.000 A 
ATOM     23  C   UNL     1      48.199  73.461  40.792  0.00  0.00    +0.000 A 
ATOM     24  C   UNL     1      48.799  73.129  38.488  0.00  0.00    +0.000 A 
ATOM     25  C   UNL     1      48.477  73.989  39.537  0.00  0.00    +0.000 A 
ENDBRANCH  17  20
ENDBRANCH  13  17
ENDBRANCH  12  13
ENDBRANCH  10  12
BRANCH  11  26
ATOM     26  C   UNL     1      57.631  71.682  42.380  0.00  0.00    +0.000 C 
BRANCH  26  30
ATOM     27  F   UNL     1      58.671  70.426  40.612  0.00  0.00    +0.000 F 
ATOM     28  F   UNL     1      59.943  71.360  42.100  0.00  0.00    +0.000 F 
ATOM     29  F   UNL     1      58.930  72.596  40.616  0.00  0.00    +0.000 F 
ATOM     30  C   UNL     1      58.784  71.510  41.407  0.00  0.00    +0.000 C 
ENDBRANCH  26  30
ENDBRANCH  11  26
TORSDOF 7
ENDMDL
MODEL 9
REMARK VINA RESULT:      -5.7     18.918     22.931
REMARK  Name = 20628248
REMARK  7 active torsions:
REMARK  status: ('A' for Active; 'I' for Inactive)
REMARK    1  A    between atoms: N_11  and  C_18
REMARK    2  A    between atoms: C_16  and  C_17
REMARK    3  A    between atoms: C_16  and  C_18
REMARK    4  A    between atoms: C_18  and  C_20
REMARK    5  A    between atoms: C_19  and  C_21
REMARK    6  A    between atoms: C_20  and  C_22
REMARK    7  A    between atoms: C_21  and  C_23
REMARK                            x       y       z     vdW  Elec       q    Type
REMARK                         _______ _______ _______ _____ _____    ______ ____
ROOT
ATOM      1  O   UNL     1      50.190  69.879  37.920  0.00  0.00    +0.000 OA
ATOM      2  N   UNL     1      51.710  69.479  39.577  0.00  0.00    +0.000 N 
ATOM      3  N   UNL     1      53.824  70.735  40.863  0.00  0.00    +0.000 N 
ATOM      4  N   UNL     1      54.909  71.297  39.059  0.00  0.00    +0.000 NA
ATOM      5  N   UNL     1      55.586  71.792  40.149  0.00  0.00    +0.000 NA
ATOM      6  C   UNL     1      52.097  69.019  40.917  0.00  0.00    +0.000 C 
ATOM      7  C   UNL     1      52.783  70.152  41.679  0.00  0.00    +0.000 C 
ATOM      8  C   UNL     1      52.811  69.935  38.709  0.00  0.00    +0.000 C 
ATOM      9  C   UNL     1      53.843  70.665  39.497  0.00  0.00    +0.000 A 
ATOM     10  C   UNL     1      50.431  69.433  39.039  0.00  0.00    +0.000 C 
ATOM     11  C   UNL     1      54.931  71.443  41.237  0.00  0.00    +0.000 A 
ENDROOT
BRANCH  10  12
ATOM     12  C   UNL     1      49.334  68.819  39.901  0.00  0.00    +0.000 C 
BRANCH  12  13
ATOM     13  C   UNL     1      47.960  68.767  39.203  0.00  0.00    +0.000 C 
BRANCH  13  14
ATOM     14  N   UNL     1      47.479  70.139  38.947  0.00  0.00    +0.000 NA
ATOM     15  H   UNL     1      48.177  70.826  39.221  0.00  0.00    +0.000 HD
ATOM     16  H   UNL     1      46.625  70.336  39.463  0.00  0.00    +0.000 HD
ENDBRANCH  13  14
BRANCH  13  17
ATOM     17  C   UNL     1      46.907  67.992  40.037  0.00  0.00    +0.000 C 
BRANCH  17  20
ATOM     18  F   UNL     1      44.351  66.914  40.657  0.00  0.00    +0.000 F 
ATOM     19  F   UNL     1      47.058  64.534  36.572  0.00  0.00    +0.000 F 
ATOM     20  C   UNL     1      46.298  66.820  39.305  0.00  0.00    +0.000 A 
ATOM     21  C   UNL     1      45.033  66.340  39.655  0.00  0.00    +0.000 A 
ATOM     22  C   UNL     1      46.986  66.188  38.255  0.00  0.00    +0.000 A 
ATOM     23  C   UNL     1      46.398  65.119  37.582  0.00  0.00    +0.000 A 
ATOM     24  C   UNL     1      44.450  65.265  38.984  0.00  0.00    +0.000 A 
ATOM     25  C   UNL     1      45.138  64.653  37.936  0.00  0.00    +0.000 A 
ENDBRANCH  17  20
ENDBRANCH  13  17
ENDBRANCH  12  13
ENDBRANCH  10  12
BRANCH  11  26
ATOM     26  C   UNL     1      55.320  71.755  42.636  0.00  0.00    +0.000 C 
BRANCH  26  30
ATOM     27  F   UNL     1      57.457  70.714  42.269  0.00  0.00    +0.000 F 
ATOM     28  F   UNL     1      55.962  69.629  43.405  0.00  0.00    +0.000 F 
ATOM     29  F   UNL     1      56.962  71.347  44.301  0.00  0.00    +0.000 F 
ATOM     30  C   UNL     1      56.444  70.872  43.147  0.00  0.00    +0.000 C 
ENDBRANCH  26  30
ENDBRANCH  11  26
TORSDOF 7
ENDMDL
