MODEL 1
REMARK VINA RESULT:      -8.2      0.000      0.000
REMARK  Name = 10150823
REMARK  7 active torsions:
REMARK  status: ('A' for Active; 'I' for Inactive)
REMARK    1  A    between atoms: N_11  and  C_19
REMARK    2  A    between atoms: C_12  and  C_18
REMARK    3  A    between atoms: C_16  and  C_17
REMARK    4  A    between atoms: C_17  and  C_19
REMARK    5  A    between atoms: C_19  and  C_21
REMARK    6  A    between atoms: C_20  and  C_22
REMARK    7  A    between atoms: C_21  and  C_23
REMARK                            x       y       z     vdW  Elec       q    Type
REMARK                         _______ _______ _______ _____ _____    ______ ____
ROOT
ATOM      1  O   UNL     1      39.500  50.358  40.221  0.00  0.00    +0.000 OA
ATOM      2  N   UNL     1      38.239  51.117  41.970  0.00  0.00    +0.000 N 
ATOM      3  N   UNL     1      37.289  50.159  44.383  0.00  0.00    +0.000 N 
ATOM      4  N   UNL     1      35.521  51.433  44.465  0.00  0.00    +0.000 NA
ATOM      5  N   UNL     1      35.460  50.526  45.499  0.00  0.00    +0.000 NA
ATOM      6  C   UNL     1      37.103  51.878  42.535  0.00  0.00    +0.000 C 
ATOM      7  C   UNL     1      39.212  50.603  42.938  0.00  0.00    +0.000 C 
ATOM      8  C   UNL     1      38.540  49.621  43.890  0.00  0.00    +0.000 C 
ATOM      9  C   UNL     1      36.618  51.196  43.783  0.00  0.00    +0.000 A 
ATOM     10  C   UNL     1      38.492  50.946  40.613  0.00  0.00    +0.000 C 
ATOM     11  C   UNL     1      37.512  53.326  42.812  0.00  0.00    +0.000 C 
ATOM     12  C   UNL     1      36.520  49.738  45.433  0.00  0.00    +0.000 A 
ENDROOT
BRANCH  12  16
ATOM     13  F   UNL     1      35.896  48.381  47.273  0.00  0.00    +0.000 F 
ATOM     14  F   UNL     1      38.015  48.750  46.981  0.00  0.00    +0.000 F 
ATOM     15  F   UNL     1      36.934  47.420  45.625  0.00  0.00    +0.000 F 
ATOM     16  C   UNL     1      36.844  48.586  46.316  0.00  0.00    +0.000 C 
ENDBRANCH  12  16
BRANCH  10  17
ATOM     17  C   UNL     1      37.470  51.506  39.639  0.00  0.00    +0.000 C 
BRANCH  17  18
ATOM     18  C   UNL     1      37.739  51.147  38.169  0.00  0.00    +0.000 C 
BRANCH  18  19
ATOM     19  N   UNL     1      38.956  51.892  37.774  0.00  0.00    +0.000 NA
ATOM     20  H   UNL     1      39.634  51.897  38.537  0.00  0.00    +0.000 HD
ATOM     21  H   UNL     1      38.714  52.873  37.630  0.00  0.00    +0.000 HD
ENDBRANCH  18  19
BRANCH  18  22
ATOM     22  C   UNL     1      36.550  51.475  37.224  0.00  0.00    +0.000 C 
BRANCH  22  25
ATOM     23  F   UNL     1      37.902  49.579  35.584  0.00  0.00    +0.000 F 
ATOM     24  F   UNL     1      32.733  48.430  36.853  0.00  0.00    +0.000 F 
ATOM     25  C   UNL     1      35.890  50.229  36.666  0.00  0.00    +0.000 A 
ATOM     26  C   UNL     1      36.620  49.325  35.886  0.00  0.00    +0.000 A 
ATOM     27  C   UNL     1      34.551  49.929  36.958  0.00  0.00    +0.000 A 
ATOM     28  C   UNL     1      33.997  48.729  36.520  0.00  0.00    +0.000 A 
ATOM     29  C   UNL     1      36.060  48.130  35.441  0.00  0.00    +0.000 A 
ATOM     30  C   UNL     1      34.740  47.822  35.773  0.00  0.00    +0.000 A 
ENDBRANCH  22  25
ENDBRANCH  18  22
ENDBRANCH  17  18
ENDBRANCH  10  17
TORSDOF 6
ENDMDL
MODEL 2
REMARK VINA RESULT:      -7.8     11.252     13.962
REMARK  Name = 10150823
REMARK  7 active torsions:
REMARK  status: ('A' for Active; 'I' for Inactive)
REMARK    1  A    between atoms: N_11  and  C_19
REMARK    2  A    between atoms: C_12  and  C_18
REMARK    3  A    between atoms: C_16  and  C_17
REMARK    4  A    between atoms: C_17  and  C_19
REMARK    5  A    between atoms: C_19  and  C_21
REMARK    6  A    between atoms: C_20  and  C_22
REMARK    7  A    between atoms: C_21  and  C_23
REMARK                            x       y       z     vdW  Elec       q    Type
REMARK                         _______ _______ _______ _____ _____    ______ ____
ROOT
ATOM      1  O   UNL     1      48.240  54.028  33.670  0.00  0.00    +0.000 OA
ATOM      2  N   UNL     1      48.999  52.208  34.827  0.00  0.00    +0.000 N 
ATOM      3  N   UNL     1      51.401  50.914  35.271  0.00  0.00    +0.000 N 
ATOM      4  N   UNL     1      50.547  48.936  35.607  0.00  0.00    +0.000 NA
ATOM      5  N   UNL     1      51.919  48.823  35.565  0.00  0.00    +0.000 NA
ATOM      6  C   UNL     1      48.873  50.816  35.312  0.00  0.00    +0.000 C 
ATOM      7  C   UNL     1      50.106  52.985  35.391  0.00  0.00    +0.000 C 
ATOM      8  C   UNL     1      51.439  52.341  35.030  0.00  0.00    +0.000 C 
ATOM      9  C   UNL     1      50.238  50.197  35.410  0.00  0.00    +0.000 A 
ATOM     10  C   UNL     1      48.104  52.842  33.972  0.00  0.00    +0.000 C 
ATOM     11  C   UNL     1      48.144  50.780  36.656  0.00  0.00    +0.000 C 
ATOM     12  C   UNL     1      52.434  50.019  35.337  0.00  0.00    +0.000 A 
ENDROOT
BRANCH  12  16
ATOM     13  F   UNL     1      54.156  50.779  33.897  0.00  0.00    +0.000 F 
ATOM     14  F   UNL     1      54.694  49.316  35.408  0.00  0.00    +0.000 F 
ATOM     15  F   UNL     1      54.255  51.378  35.982  0.00  0.00    +0.000 F 
ATOM     16  C   UNL     1      53.870  50.366  35.164  0.00  0.00    +0.000 C 
ENDBRANCH  12  16
BRANCH  10  17
ATOM     17  C   UNL     1      46.960  52.008  33.420  0.00  0.00    +0.000 C 
BRANCH  17  18
ATOM     18  C   UNL     1      45.565  52.492  33.850  0.00  0.00    +0.000 C 
BRANCH  18  19
ATOM     19  N   UNL     1      45.384  53.832  33.246  0.00  0.00    +0.000 NA
ATOM     20  H   UNL     1      45.851  53.880  32.339  0.00  0.00    +0.000 HD
ATOM     21  H   UNL     1      45.860  54.525  33.824  0.00  0.00    +0.000 HD
ENDBRANCH  18  19
BRANCH  18  22
ATOM     22  C   UNL     1      45.375  52.543  35.391  0.00  0.00    +0.000 C 
BRANCH  22  25
ATOM     23  F   UNL     1      45.272  51.316  37.959  0.00  0.00    +0.000 F 
ATOM     24  F   UNL     1      40.927  50.593  34.758  0.00  0.00    +0.000 F 
ATOM     25  C   UNL     1      44.219  51.682  35.862  0.00  0.00    +0.000 A 
ATOM     26  C   UNL     1      44.222  51.128  37.147  0.00  0.00    +0.000 A 
ATOM     27  C   UNL     1      43.102  51.460  35.042  0.00  0.00    +0.000 A 
ATOM     28  C   UNL     1      42.010  50.751  35.534  0.00  0.00    +0.000 A 
ATOM     29  C   UNL     1      43.131  50.410  37.633  0.00  0.00    +0.000 A 
ATOM     30  C   UNL     1      42.007  50.232  36.823  0.00  0.00    +0.000 A 
ENDBRANCH  22  25
ENDBRANCH  18  22
ENDBRANCH  17  18
ENDBRANCH  10  17
TORSDOF 6
ENDMDL
MODEL 3
REMARK VINA RESULT:      -7.8     25.473     28.204
REMARK  Name = 10150823
REMARK  7 active torsions:
REMARK  status: ('A' for Active; 'I' for Inactive)
REMARK    1  A    between atoms: N_11  and  C_19
REMARK    2  A    between atoms: C_12  and  C_18
REMARK    3  A    between atoms: C_16  and  C_17
REMARK    4  A    between atoms: C_17  and  C_19
REMARK    5  A    between atoms: C_19  and  C_21
REMARK    6  A    between atoms: C_20  and  C_22
REMARK    7  A    between atoms: C_21  and  C_23
REMARK                            x       y       z     vdW  Elec       q    Type
REMARK                         _______ _______ _______ _____ _____    ______ ____
ROOT
ATOM      1  O   UNL     1      54.901  71.684  36.500  0.00  0.00    +0.000 OA
ATOM      2  N   UNL     1      53.641  70.806  38.194  0.00  0.00    +0.000 N 
ATOM      3  N   UNL     1      51.029  70.940  39.090  0.00  0.00    +0.000 N 
ATOM      4  N   UNL     1      51.476  70.535  41.185  0.00  0.00    +0.000 NA
ATOM      5  N   UNL     1      50.144  70.868  41.074  0.00  0.00    +0.000 NA
ATOM      6  C   UNL     1      53.444  70.377  39.596  0.00  0.00    +0.000 C 
ATOM      7  C   UNL     1      52.572  70.447  37.258  0.00  0.00    +0.000 C 
ATOM      8  C   UNL     1      51.264  71.111  37.671  0.00  0.00    +0.000 C 
ATOM      9  C   UNL     1      52.010  70.598  39.987  0.00  0.00    +0.000 A 
ATOM     10  C   UNL     1      54.785  71.422  37.697  0.00  0.00    +0.000 C 
ATOM     11  C   UNL     1      53.853  68.914  39.772  0.00  0.00    +0.000 C 
ATOM     12  C   UNL     1      49.880  71.138  39.807  0.00  0.00    +0.000 A 
ENDROOT
BRANCH  12  16
ATOM     13  F   UNL     1      48.094  70.711  38.310  0.00  0.00    +0.000 F 
ATOM     14  F   UNL     1      48.685  72.781  38.591  0.00  0.00    +0.000 F 
ATOM     15  F   UNL     1      47.621  71.718  40.175  0.00  0.00    +0.000 F 
ATOM     16  C   UNL     1      48.586  71.588  39.230  0.00  0.00    +0.000 C 
ENDBRANCH  12  16
BRANCH  10  17
ATOM     17  C   UNL     1      55.878  71.764  38.695  0.00  0.00    +0.000 C 
BRANCH  17  18
ATOM     18  C   UNL     1      57.118  70.859  38.606  0.00  0.00    +0.000 C 
BRANCH  18  19
ATOM     19  N   UNL     1      56.829  69.861  37.551  0.00  0.00    +0.000 NA
ATOM     20  H   UNL     1      55.907  70.028  37.145  0.00  0.00    +0.000 HD
ATOM     21  H   UNL     1      56.764  68.936  37.977  0.00  0.00    +0.000 HD
ENDBRANCH  18  19
BRANCH  18  22
ATOM     22  C   UNL     1      57.476  70.166  39.949  0.00  0.00    +0.000 C 
BRANCH  22  25
ATOM     23  F   UNL     1      55.659  70.548  42.109  0.00  0.00    +0.000 F 
ATOM     24  F   UNL     1      60.246  73.477  42.261  0.00  0.00    +0.000 F 
ATOM     25  C   UNL     1      57.706  71.159  41.072  0.00  0.00    +0.000 A 
ATOM     26  C   UNL     1      56.783  71.280  42.116  0.00  0.00    +0.000 A 
ATOM     27  C   UNL     1      58.869  71.944  41.115  0.00  0.00    +0.000 A 
ATOM     28  C   UNL     1      59.105  72.775  42.207  0.00  0.00    +0.000 A 
ATOM     29  C   UNL     1      57.018  72.119  43.204  0.00  0.00    +0.000 A 
ATOM     30  C   UNL     1      58.198  72.863  43.256  0.00  0.00    +0.000 A 
ENDBRANCH  22  25
ENDBRANCH  18  22
ENDBRANCH  17  18
ENDBRANCH  10  17
TORSDOF 6
ENDMDL
MODEL 4
REMARK VINA RESULT:      -7.4     17.149     18.410
REMARK  Name = 10150823
REMARK  7 active torsions:
REMARK  status: ('A' for Active; 'I' for Inactive)
REMARK    1  A    between atoms: N_11  and  C_19
REMARK    2  A    between atoms: C_12  and  C_18
REMARK    3  A    between atoms: C_16  and  C_17
REMARK    4  A    between atoms: C_17  and  C_19
REMARK    5  A    between atoms: C_19  and  C_21
REMARK    6  A    between atoms: C_20  and  C_22
REMARK    7  A    between atoms: C_21  and  C_23
REMARK                            x       y       z     vdW  Elec       q    Type
REMARK                         _______ _______ _______ _____ _____    ______ ____
ROOT
ATOM      1  O   UNL     1      31.304  63.621  37.322  0.00  0.00    +0.000 OA
ATOM      2  N   UNL     1      30.488  65.392  38.515  0.00  0.00    +0.000 N 
ATOM      3  N   UNL     1      29.352  65.848  40.994  0.00  0.00    +0.000 N 
ATOM      4  N   UNL     1      28.186  67.594  40.404  0.00  0.00    +0.000 NA
ATOM      5  N   UNL     1      27.838  67.243  41.689  0.00  0.00    +0.000 NA
ATOM      6  C   UNL     1      29.739  66.662  38.630  0.00  0.00    +0.000 C 
ATOM      7  C   UNL     1      31.241  64.982  39.704  0.00  0.00    +0.000 C 
ATOM      8  C   UNL     1      30.294  64.754  40.875  0.00  0.00    +0.000 C 
ATOM      9  C   UNL     1      29.088  66.737  39.982  0.00  0.00    +0.000 A 
ATOM     10  C   UNL     1      30.603  64.632  37.356  0.00  0.00    +0.000 C 
ATOM     11  C   UNL     1      30.665  67.855  38.388  0.00  0.00    +0.000 C 
ATOM     12  C   UNL     1      28.526  66.169  42.037  0.00  0.00    +0.000 A 
ENDROOT
BRANCH  12  16
ATOM     13  F   UNL     1      28.256  64.078  43.117  0.00  0.00    +0.000 F 
ATOM     14  F   UNL     1      27.402  65.820  44.091  0.00  0.00    +0.000 F 
ATOM     15  F   UNL     1      29.568  65.530  44.058  0.00  0.00    +0.000 F 
ATOM     16  C   UNL     1      28.438  65.414  43.315  0.00  0.00    +0.000 C 
ENDBRANCH  12  16
BRANCH  10  17
ATOM     17  C   UNL     1      29.820  65.096  36.140  0.00  0.00    +0.000 C 
BRANCH  17  18
ATOM     18  C   UNL     1      28.414  64.485  36.025  0.00  0.00    +0.000 C 
BRANCH  18  19
ATOM     19  N   UNL     1      28.606  63.033  35.810  0.00  0.00    +0.000 NA
ATOM     20  H   UNL     1      29.501  62.857  35.351  0.00  0.00    +0.000 HD
ATOM     21  H   UNL     1      27.903  62.697  35.153  0.00  0.00    +0.000 HD
ENDBRANCH  18  19
BRANCH  18  22
ATOM     22  C   UNL     1      27.558  65.110  34.889  0.00  0.00    +0.000 C 
BRANCH  22  25
ATOM     23  F   UNL     1      29.116  66.243  32.790  0.00  0.00    +0.000 F 
ATOM     24  F   UNL     1      26.783  69.753  36.238  0.00  0.00    +0.000 F 
ATOM     25  C   UNL     1      27.798  66.600  34.734  0.00  0.00    +0.000 A 
ATOM     26  C   UNL     1      28.554  67.092  33.665  0.00  0.00    +0.000 A 
ATOM     27  C   UNL     1      27.228  67.519  35.628  0.00  0.00    +0.000 A 
ATOM     28  C   UNL     1      27.378  68.886  35.407  0.00  0.00    +0.000 A 
ATOM     29  C   UNL     1      28.710  68.460  33.451  0.00  0.00    +0.000 A 
ATOM     30  C   UNL     1      28.104  69.366  34.323  0.00  0.00    +0.000 A 
ENDBRANCH  22  25
ENDBRANCH  18  22
ENDBRANCH  17  18
ENDBRANCH  10  17
TORSDOF 6
ENDMDL
MODEL 5
REMARK VINA RESULT:      -7.1     12.972     15.384
REMARK  Name = 10150823
REMARK  7 active torsions:
REMARK  status: ('A' for Active; 'I' for Inactive)
REMARK    1  A    between atoms: N_11  and  C_19
REMARK    2  A    between atoms: C_12  and  C_18
REMARK    3  A    between atoms: C_16  and  C_17
REMARK    4  A    between atoms: C_17  and  C_19
REMARK    5  A    between atoms: C_19  and  C_21
REMARK    6  A    between atoms: C_20  and  C_22
REMARK    7  A    between atoms: C_21  and  C_23
REMARK                            x       y       z     vdW  Elec       q    Type
REMARK                         _______ _______ _______ _____ _____    ______ ____
ROOT
ATOM      1  O   UNL     1      51.122  52.600  34.449  0.00  0.00    +0.000 OA
ATOM      2  N   UNL     1      48.911  52.926  34.929  0.00  0.00    +0.000 N 
ATOM      3  N   UNL     1      47.395  54.148  36.891  0.00  0.00    +0.000 N 
ATOM      4  N   UNL     1      45.648  52.860  36.679  0.00  0.00    +0.000 NA
ATOM      5  N   UNL     1      45.464  53.677  37.772  0.00  0.00    +0.000 NA
ATOM      6  C   UNL     1      47.503  52.478  34.994  0.00  0.00    +0.000 C 
ATOM      7  C   UNL     1      49.143  54.349  35.193  0.00  0.00    +0.000 C 
ATOM      8  C   UNL     1      48.703  54.701  36.608  0.00  0.00    +0.000 C 
ATOM      9  C   UNL     1      46.824  53.136  36.161  0.00  0.00    +0.000 A 
ATOM     10  C   UNL     1      49.987  52.133  34.547  0.00  0.00    +0.000 C 
ATOM     11  C   UNL     1      46.781  52.784  33.681  0.00  0.00    +0.000 C 
ATOM     12  C   UNL     1      46.535  54.440  37.915  0.00  0.00    +0.000 A 
ENDROOT
BRANCH  12  16
ATOM     13  F   UNL     1      47.925  55.153  39.696  0.00  0.00    +0.000 F 
ATOM     14  F   UNL     1      45.792  55.502  39.896  0.00  0.00    +0.000 F 
ATOM     15  F   UNL     1      46.973  56.688  38.492  0.00  0.00    +0.000 F 
ATOM     16  C   UNL     1      46.797  55.437  38.987  0.00  0.00    +0.000 C 
ENDBRANCH  12  16
BRANCH  10  17
ATOM     17  C   UNL     1      49.705  50.667  34.266  0.00  0.00    +0.000 C 
BRANCH  17  18
ATOM     18  C   UNL     1      50.963  49.784  34.211  0.00  0.00    +0.000 C 
BRANCH  18  19
ATOM     19  N   UNL     1      50.633  48.645  33.324  0.00  0.00    +0.000 NA
ATOM     20  H   UNL     1      51.478  48.124  33.084  0.00  0.00    +0.000 HD
ATOM     21  H   UNL     1      50.285  49.004  32.435  0.00  0.00    +0.000 HD
ENDBRANCH  18  19
BRANCH  18  22
ATOM     22  C   UNL     1      51.432  49.287  35.606  0.00  0.00    +0.000 C 
BRANCH  22  25
ATOM     23  F   UNL     1      53.321  47.289  34.863  0.00  0.00    +0.000 F 
ATOM     24  F   UNL     1      55.362  51.907  36.902  0.00  0.00    +0.000 F 
ATOM     25  C   UNL     1      52.929  49.436  35.801  0.00  0.00    +0.000 A 
ATOM     26  C   UNL     1      53.804  48.424  35.391  0.00  0.00    +0.000 A 
ATOM     27  C   UNL     1      53.473  50.606  36.351  0.00  0.00    +0.000 A 
ATOM     28  C   UNL     1      54.855  50.761  36.426  0.00  0.00    +0.000 A 
ATOM     29  C   UNL     1      55.186  48.577  35.476  0.00  0.00    +0.000 A 
ATOM     30  C   UNL     1      55.718  49.763  35.986  0.00  0.00    +0.000 A 
ENDBRANCH  22  25
ENDBRANCH  18  22
ENDBRANCH  17  18
ENDBRANCH  10  17
TORSDOF 6
ENDMDL
MODEL 6
REMARK VINA RESULT:      -6.9     17.947     19.326
REMARK  Name = 10150823
REMARK  7 active torsions:
REMARK  status: ('A' for Active; 'I' for Inactive)
REMARK    1  A    between atoms: N_11  and  C_19
REMARK    2  A    between atoms: C_12  and  C_18
REMARK    3  A    between atoms: C_16  and  C_17
REMARK    4  A    between atoms: C_17  and  C_19
REMARK    5  A    between atoms: C_19  and  C_21
REMARK    6  A    between atoms: C_20  and  C_22
REMARK    7  A    between atoms: C_21  and  C_23
REMARK                            x       y       z     vdW  Elec       q    Type
REMARK                         _______ _______ _______ _____ _____    ______ ____
ROOT
ATOM      1  O   UNL     1      29.406  63.733  38.734  0.00  0.00    +0.000 OA
ATOM      2  N   UNL     1      29.120  65.904  39.391  0.00  0.00    +0.000 N 
ATOM      3  N   UNL     1      27.732  67.295  41.335  0.00  0.00    +0.000 N 
ATOM      4  N   UNL     1      27.532  69.149  40.205  0.00  0.00    +0.000 NA
ATOM      5  N   UNL     1      26.790  69.253  41.360  0.00  0.00    +0.000 NA
ATOM      6  C   UNL     1      28.939  67.346  39.112  0.00  0.00    +0.000 C 
ATOM      7  C   UNL     1      29.354  65.547  40.793  0.00  0.00    +0.000 C 
ATOM      8  C   UNL     1      28.156  65.945  41.645  0.00  0.00    +0.000 C 
ATOM      9  C   UNL     1      28.085  67.957  40.186  0.00  0.00    +0.000 A 
ATOM     10  C   UNL     1      29.181  64.904  38.427  0.00  0.00    +0.000 C 
ATOM     11  C   UNL     1      30.295  68.047  39.009  0.00  0.00    +0.000 C 
ATOM     12  C   UNL     1      26.891  68.119  42.032  0.00  0.00    +0.000 A 
ENDROOT
BRANCH  12  16
ATOM     13  F   UNL     1      25.470  68.789  43.806  0.00  0.00    +0.000 F 
ATOM     14  F   UNL     1      27.100  67.440  44.291  0.00  0.00    +0.000 F 
ATOM     15  F   UNL     1      25.370  66.715  43.170  0.00  0.00    +0.000 F 
ATOM     16  C   UNL     1      26.220  67.764  43.310  0.00  0.00    +0.000 C 
ENDBRANCH  12  16
BRANCH  10  17
ATOM     17  C   UNL     1      28.949  65.315  36.983  0.00  0.00    +0.000 C 
BRANCH  17  18
ATOM     18  C   UNL     1      27.977  64.402  36.217  0.00  0.00    +0.000 C 
BRANCH  18  19
ATOM     19  N   UNL     1      28.742  63.186  35.859  0.00  0.00    +0.000 NA
ATOM     20  H   UNL     1      29.743  63.386  35.844  0.00  0.00    +0.000 HD
ATOM     21  H   UNL     1      28.513  62.917  34.903  0.00  0.00    +0.000 HD
ENDBRANCH  18  19
BRANCH  18  22
ATOM     22  C   UNL     1      27.367  65.070  34.954  0.00  0.00    +0.000 C 
BRANCH  22  25
ATOM     23  F   UNL     1      26.623  67.759  35.527  0.00  0.00    +0.000 F 
ATOM     24  F   UNL     1      31.276  67.069  32.784  0.00  0.00    +0.000 F 
ATOM     25  C   UNL     1      28.163  66.276  34.493  0.00  0.00    +0.000 A 
ATOM     26  C   UNL     1      27.754  67.570  34.830  0.00  0.00    +0.000 A 
ATOM     27  C   UNL     1      29.350  66.120  33.761  0.00  0.00    +0.000 A 
ATOM     28  C   UNL     1      30.116  67.237  33.436  0.00  0.00    +0.000 A 
ATOM     29  C   UNL     1      28.518  68.686  34.496  0.00  0.00    +0.000 A 
ATOM     30  C   UNL     1      29.719  68.517  33.804  0.00  0.00    +0.000 A 
ENDBRANCH  22  25
ENDBRANCH  18  22
ENDBRANCH  17  18
ENDBRANCH  10  17
TORSDOF 6
ENDMDL
MODEL 7
REMARK VINA RESULT:      -6.7     15.972     16.996
REMARK  Name = 10150823
REMARK  7 active torsions:
REMARK  status: ('A' for Active; 'I' for Inactive)
REMARK    1  A    between atoms: N_11  and  C_19
REMARK    2  A    between atoms: C_12  and  C_18
REMARK    3  A    between atoms: C_16  and  C_17
REMARK    4  A    between atoms: C_17  and  C_19
REMARK    5  A    between atoms: C_19  and  C_21
REMARK    6  A    between atoms: C_20  and  C_22
REMARK    7  A    between atoms: C_21  and  C_23
REMARK                            x       y       z     vdW  Elec       q    Type
REMARK                         _______ _______ _______ _____ _____    ______ ____
ROOT
ATOM      1  O   UNL     1      30.735  67.262  39.901  0.00  0.00    +0.000 OA
ATOM      2  N   UNL     1      30.549  66.007  41.802  0.00  0.00    +0.000 N 
ATOM      3  N   UNL     1      31.919  65.666  44.179  0.00  0.00    +0.000 N 
ATOM      4  N   UNL     1      31.309  63.599  44.512  0.00  0.00    +0.000 NA
ATOM      5  N   UNL     1      32.249  63.940  45.458  0.00  0.00    +0.000 NA
ATOM      6  C   UNL     1      30.244  64.749  42.519  0.00  0.00    +0.000 C 
ATOM      7  C   UNL     1      30.773  67.186  42.643  0.00  0.00    +0.000 C 
ATOM      8  C   UNL     1      31.981  66.967  43.546  0.00  0.00    +0.000 C 
ATOM      9  C   UNL     1      31.126  64.640  43.730  0.00  0.00    +0.000 A 
ATOM     10  C   UNL     1      30.540  66.163  40.420  0.00  0.00    +0.000 C 
ATOM     11  C   UNL     1      28.763  64.694  42.899  0.00  0.00    +0.000 C 
ATOM     12  C   UNL     1      32.637  65.185  45.240  0.00  0.00    +0.000 A 
ENDROOT
BRANCH  12  16
ATOM     13  F   UNL     1      34.212  65.235  47.009  0.00  0.00    +0.000 F 
ATOM     14  F   UNL     1      33.179  67.087  46.542  0.00  0.00    +0.000 F 
ATOM     15  F   UNL     1      34.712  66.313  45.191  0.00  0.00    +0.000 F 
ATOM     16  C   UNL     1      33.671  65.952  45.984  0.00  0.00    +0.000 C 
ENDBRANCH  12  16
BRANCH  10  17
ATOM     17  C   UNL     1      30.288  64.922  39.582  0.00  0.00    +0.000 C 
BRANCH  17  18
ATOM     18  C   UNL     1      29.027  64.999  38.706  0.00  0.00    +0.000 C 
BRANCH  18  19
ATOM     19  N   UNL     1      27.900  64.554  39.558  0.00  0.00    +0.000 NA
ATOM     20  H   UNL     1      27.551  63.648  39.243  0.00  0.00    +0.000 HD
ATOM     21  H   UNL     1      27.116  65.195  39.435  0.00  0.00    +0.000 HD
ENDBRANCH  18  19
BRANCH  18  22
ATOM     22  C   UNL     1      29.119  64.145  37.411  0.00  0.00    +0.000 C 
BRANCH  22  25
ATOM     23  F   UNL     1      27.216  64.486  35.319  0.00  0.00    +0.000 F 
ATOM     24  F   UNL     1      31.892  67.227  34.805  0.00  0.00    +0.000 F 
ATOM     25  C   UNL     1      29.373  64.989  36.177  0.00  0.00    +0.000 A 
ATOM     26  C   UNL     1      28.385  65.133  35.197  0.00  0.00    +0.000 A 
ATOM     27  C   UNL     1      30.582  65.681  36.012  0.00  0.00    +0.000 A 
ATOM     28  C   UNL     1      30.753  66.530  34.921  0.00  0.00    +0.000 A 
ATOM     29  C   UNL     1      28.562  65.976  34.102  0.00  0.00    +0.000 A 
ATOM     30  C   UNL     1      29.753  66.693  33.970  0.00  0.00    +0.000 A 
ENDBRANCH  22  25
ENDBRANCH  18  22
ENDBRANCH  17  18
ENDBRANCH  10  17
TORSDOF 6
ENDMDL
MODEL 8
REMARK VINA RESULT:      -6.7     18.397     19.926
REMARK  Name = 10150823
REMARK  7 active torsions:
REMARK  status: ('A' for Active; 'I' for Inactive)
REMARK    1  A    between atoms: N_11  and  C_19
REMARK    2  A    between atoms: C_12  and  C_18
REMARK    3  A    between atoms: C_16  and  C_17
REMARK    4  A    between atoms: C_17  and  C_19
REMARK    5  A    between atoms: C_19  and  C_21
REMARK    6  A    between atoms: C_20  and  C_22
REMARK    7  A    between atoms: C_21  and  C_23
REMARK                            x       y       z     vdW  Elec       q    Type
REMARK                         _______ _______ _______ _____ _____    ______ ____
ROOT
ATOM      1  O   UNL     1      28.836  64.696  41.066  0.00  0.00    +0.000 OA
ATOM      2  N   UNL     1      28.721  66.798  40.174  0.00  0.00    +0.000 N 
ATOM      3  N   UNL     1      27.432  69.185  40.706  0.00  0.00    +0.000 N 
ATOM      4  N   UNL     1      27.393  69.898  38.646  0.00  0.00    +0.000 NA
ATOM      5  N   UNL     1      26.652  70.758  39.425  0.00  0.00    +0.000 NA
ATOM      6  C   UNL     1      28.660  67.737  39.033  0.00  0.00    +0.000 C 
ATOM      7  C   UNL     1      28.913  67.405  41.494  0.00  0.00    +0.000 C 
ATOM      8  C   UNL     1      27.743  68.323  41.827  0.00  0.00    +0.000 C 
ATOM      9  C   UNL     1      27.847  68.940  39.421  0.00  0.00    +0.000 A 
ATOM     10  C   UNL     1      28.709  65.411  40.072  0.00  0.00    +0.000 C 
ATOM     11  C   UNL     1      30.068  68.133  38.587  0.00  0.00    +0.000 C 
ATOM     12  C   UNL     1      26.655  70.311  40.670  0.00  0.00    +0.000 A 
ENDROOT
BRANCH  12  16
ATOM     13  F   UNL     1      25.239  72.011  41.515  0.00  0.00    +0.000 F 
ATOM     14  F   UNL     1      26.792  71.261  42.833  0.00  0.00    +0.000 F 
ATOM     15  F   UNL     1      25.048  70.027  42.377  0.00  0.00    +0.000 F 
ATOM     16  C   UNL     1      25.945  70.892  41.840  0.00  0.00    +0.000 C 
ENDBRANCH  12  16
BRANCH  10  17
ATOM     17  C   UNL     1      28.524  64.818  38.685  0.00  0.00    +0.000 C 
BRANCH  17  18
ATOM     18  C   UNL     1      29.599  63.791  38.292  0.00  0.00    +0.000 C 
BRANCH  18  19
ATOM     19  N   UNL     1      30.878  64.295  38.841  0.00  0.00    +0.000 NA
ATOM     20  H   UNL     1      30.706  64.896  39.649  0.00  0.00    +0.000 HD
ATOM     21  H   UNL     1      31.320  64.903  38.152  0.00  0.00    +0.000 HD
ENDBRANCH  18  19
BRANCH  18  22
ATOM     22  C   UNL     1      29.701  63.559  36.759  0.00  0.00    +0.000 C 
BRANCH  22  25
ATOM     23  F   UNL     1      27.119  64.057  35.664  0.00  0.00    +0.000 F 
ATOM     24  F   UNL     1      30.852  67.952  34.926  0.00  0.00    +0.000 F 
ATOM     25  C   UNL     1      29.356  64.800  35.960  0.00  0.00    +0.000 A 
ATOM     26  C   UNL     1      28.059  64.994  35.470  0.00  0.00    +0.000 A 
ATOM     27  C   UNL     1      30.311  65.803  35.734  0.00  0.00    +0.000 A 
ATOM     28  C   UNL     1      29.943  66.979  35.086  0.00  0.00    +0.000 A 
ATOM     29  C   UNL     1      27.696  66.168  34.813  0.00  0.00    +0.000 A 
ATOM     30  C   UNL     1      28.644  67.177  34.632  0.00  0.00    +0.000 A 
ENDBRANCH  22  25
ENDBRANCH  18  22
ENDBRANCH  17  18
ENDBRANCH  10  17
TORSDOF 6
ENDMDL
MODEL 9
REMARK VINA RESULT:      -6.5     14.449     17.680
REMARK  Name = 10150823
REMARK  7 active torsions:
REMARK  status: ('A' for Active; 'I' for Inactive)
REMARK    1  A    between atoms: N_11  and  C_19
REMARK    2  A    between atoms: C_12  and  C_18
REMARK    3  A    between atoms: C_16  and  C_17
REMARK    4  A    between atoms: C_17  and  C_19
REMARK    5  A    between atoms: C_19  and  C_21
REMARK    6  A    between atoms: C_20  and  C_22
REMARK    7  A    between atoms: C_21  and  C_23
REMARK                            x       y       z     vdW  Elec       q    Type
REMARK                         _______ _______ _______ _____ _____    ______ ____
ROOT
ATOM      1  O   UNL     1      54.758  51.401  39.653  0.00  0.00    +0.000 OA
ATOM      2  N   UNL     1      52.921  50.340  38.802  0.00  0.00    +0.000 N 
ATOM      3  N   UNL     1      51.247  50.571  36.614  0.00  0.00    +0.000 N 
ATOM      4  N   UNL     1      49.487  49.705  37.568  0.00  0.00    +0.000 NA
ATOM      5  N   UNL     1      49.124  50.195  36.334  0.00  0.00    +0.000 NA
ATOM      6  C   UNL     1      51.614  49.660  38.946  0.00  0.00    +0.000 C 
ATOM      7  C   UNL     1      53.522  50.295  37.467  0.00  0.00    +0.000 C 
ATOM      8  C   UNL     1      52.621  50.998  36.459  0.00  0.00    +0.000 C 
ATOM      9  C   UNL     1      50.766  49.951  37.741  0.00  0.00    +0.000 A 
ATOM     10  C   UNL     1      53.643  50.916  39.842  0.00  0.00    +0.000 C 
ATOM     11  C   UNL     1      51.811  48.156  39.143  0.00  0.00    +0.000 C 
ATOM     12  C   UNL     1      50.186  50.742  35.767  0.00  0.00    +0.000 A 
ENDROOT
BRANCH  12  16
ATOM     13  F   UNL     1      49.040  51.486  33.831  0.00  0.00    +0.000 F 
ATOM     14  F   UNL     1      51.093  50.828  33.582  0.00  0.00    +0.000 F 
ATOM     15  F   UNL     1      50.660  52.726  34.575  0.00  0.00    +0.000 F 
ATOM     16  C   UNL     1      50.251  51.437  34.454  0.00  0.00    +0.000 C 
ENDBRANCH  12  16
BRANCH  10  17
ATOM     17  C   UNL     1      52.993  50.929  41.215  0.00  0.00    +0.000 C 
BRANCH  17  18
ATOM     18  C   UNL     1      52.874  52.329  41.841  0.00  0.00    +0.000 C 
BRANCH  18  19
ATOM     19  N   UNL     1      53.004  53.296  40.728  0.00  0.00    +0.000 NA
ATOM     20  H   UNL     1      53.749  53.008  40.091  0.00  0.00    +0.000 HD
ATOM     21  H   UNL     1      53.309  54.195  41.100  0.00  0.00    +0.000 HD
ENDBRANCH  18  19
BRANCH  18  22
ATOM     22  C   UNL     1      53.931  52.604  42.947  0.00  0.00    +0.000 C 
BRANCH  22  25
ATOM     23  F   UNL     1      55.756  50.559  43.722  0.00  0.00    +0.000 F 
ATOM     24  F   UNL     1      51.487  51.364  47.005  0.00  0.00    +0.000 F 
ATOM     25  C   UNL     1      53.735  51.726  44.168  0.00  0.00    +0.000 A 
ATOM     26  C   UNL     1      54.684  50.755  44.505  0.00  0.00    +0.000 A 
ATOM     27  C   UNL     1      52.628  51.899  45.012  0.00  0.00    +0.000 A 
ATOM     28  C   UNL     1      52.523  51.150  46.181  0.00  0.00    +0.000 A 
ATOM     29  C   UNL     1      54.572  50.001  45.672  0.00  0.00    +0.000 A 
ATOM     30  C   UNL     1      53.487  50.211  46.526  0.00  0.00    +0.000 A 
ENDBRANCH  22  25
ENDBRANCH  18  22
ENDBRANCH  17  18
ENDBRANCH  10  17
TORSDOF 6
ENDMDL
