MODEL 1
REMARK VINA RESULT:      -9.0      0.000      0.000
REMARK  Name = 10455621
REMARK  8 active torsions:
REMARK  status: ('A' for Active; 'I' for Inactive)
REMARK    1  A    between atoms: N_12  and  C_22
REMARK    2  A    between atoms: C_13  and  C_18
REMARK    3  A    between atoms: C_14  and  C_19
REMARK    4  A    between atoms: C_17  and  C_21
REMARK    5  A    between atoms: C_20  and  C_24
REMARK    6  A    between atoms: C_21  and  C_22
REMARK    7  A    between atoms: C_22  and  C_23
REMARK    8  A    between atoms: C_23  and  C_25
REMARK                            x       y       z     vdW  Elec       q    Type
REMARK                         _______ _______ _______ _____ _____    ______ ____
ROOT
ATOM      1  O   UNL     1      54.726  71.258  36.700  0.00  0.00    +0.000 OA
ATOM      2  N   UNL     1      55.379  70.895  38.887  0.00  0.00    +0.000 N 
ATOM      3  N   UNL     1      56.978  71.359  41.125  0.00  0.00    +0.000 N 
ATOM      4  N   UNL     1      58.790  71.811  39.995  0.00  0.00    +0.000 NA
ATOM      5  N   UNL     1      58.978  72.211  41.288  0.00  0.00    +0.000 NA
ATOM      6  C   UNL     1      55.630  70.874  41.380  0.00  0.00    +0.000 C 
ATOM      7  C   UNL     1      56.842  70.958  38.603  0.00  0.00    +0.000 C 
ATOM      8  C   UNL     1      55.055  70.188  40.129  0.00  0.00    +0.000 C 
ATOM      9  C   UNL     1      57.556  71.373  39.872  0.00  0.00    +0.000 A 
ATOM     10  C   UNL     1      54.426  71.045  37.872  0.00  0.00    +0.000 C 
ATOM     11  C   UNL     1      55.527  69.897  42.557  0.00  0.00    +0.000 C 
ATOM     12  C   UNL     1      57.285  71.874  37.455  0.00  0.00    +0.000 C 
ATOM     13  C   UNL     1      57.855  72.002  41.962  0.00  0.00    +0.000 A 
ENDROOT
BRANCH  13  17
ATOM     14  F   UNL     1      58.414  73.424  43.776  0.00  0.00    +0.000 F 
ATOM     15  F   UNL     1      57.795  71.402  44.248  0.00  0.00    +0.000 F 
ATOM     16  F   UNL     1      56.327  72.859  43.544  0.00  0.00    +0.000 F 
ATOM     17  C   UNL     1      57.597  72.413  43.369  0.00  0.00    +0.000 C 
ENDBRANCH  13  17
BRANCH  10  18
ATOM     18  C   UNL     1      52.959  70.984  38.297  0.00  0.00    +0.000 C 
BRANCH  18  19
ATOM     19  C   UNL     1      51.978  71.590  37.278  0.00  0.00    +0.000 C 
BRANCH  19  20
ATOM     20  N   UNL     1      52.157  73.052  37.194  0.00  0.00    +0.000 NA
ATOM     21  H   UNL     1      52.489  73.337  36.276  0.00  0.00    +0.000 HD
ATOM     22  H   UNL     1      52.846  73.376  37.878  0.00  0.00    +0.000 HD
ENDBRANCH  19  20
BRANCH  19  23
ATOM     23  C   UNL     1      50.485  71.229  37.518  0.00  0.00    +0.000 C 
BRANCH  23  27
ATOM     24  F   UNL     1      50.328  69.978  40.113  0.00  0.00    +0.000 F 
ATOM     25  F   UNL     1      48.050  74.898  39.637  0.00  0.00    +0.000 F 
ATOM     26  F   UNL     1      48.011  73.581  42.035  0.00  0.00    +0.000 F 
ATOM     27  C   UNL     1      49.785  71.828  38.722  0.00  0.00    +0.000 A 
ATOM     28  C   UNL     1      49.762  71.183  39.968  0.00  0.00    +0.000 A 
ATOM     29  C   UNL     1      49.192  73.098  38.627  0.00  0.00    +0.000 A 
ATOM     30  C   UNL     1      48.600  73.683  39.746  0.00  0.00    +0.000 A 
ATOM     31  C   UNL     1      49.164  71.761  41.084  0.00  0.00    +0.000 A 
ATOM     32  C   UNL     1      48.585  73.016  40.965  0.00  0.00    +0.000 A 
ENDBRANCH  23  27
ENDBRANCH  19  23
ENDBRANCH  18  19
ENDBRANCH  10  18
TORSDOF 6
ENDMDL
MODEL 2
REMARK VINA RESULT:      -8.2     20.596     21.870
REMARK  Name = 10455621
REMARK  8 active torsions:
REMARK  status: ('A' for Active; 'I' for Inactive)
REMARK    1  A    between atoms: N_12  and  C_22
REMARK    2  A    between atoms: C_13  and  C_18
REMARK    3  A    between atoms: C_14  and  C_19
REMARK    4  A    between atoms: C_17  and  C_21
REMARK    5  A    between atoms: C_20  and  C_24
REMARK    6  A    between atoms: C_21  and  C_22
REMARK    7  A    between atoms: C_22  and  C_23
REMARK    8  A    between atoms: C_23  and  C_25
REMARK                            x       y       z     vdW  Elec       q    Type
REMARK                         _______ _______ _______ _____ _____    ______ ____
ROOT
ATOM      1  O   UNL     1      50.048  49.085  34.236  0.00  0.00    +0.000 OA
ATOM      2  N   UNL     1      51.414  49.570  36.035  0.00  0.00    +0.000 N 
ATOM      3  N   UNL     1      53.841  50.295  37.203  0.00  0.00    +0.000 N 
ATOM      4  N   UNL     1      55.092  49.302  35.715  0.00  0.00    +0.000 NA
ATOM      5  N   UNL     1      55.881  50.144  36.447  0.00  0.00    +0.000 NA
ATOM      6  C   UNL     1      52.637  50.640  37.942  0.00  0.00    +0.000 C 
ATOM      7  C   UNL     1      52.601  48.841  35.504  0.00  0.00    +0.000 C 
ATOM      8  C   UNL     1      51.453  49.771  37.487  0.00  0.00    +0.000 C 
ATOM      9  C   UNL     1      53.847  49.452  36.110  0.00  0.00    +0.000 A 
ATOM     10  C   UNL     1      50.204  49.616  35.332  0.00  0.00    +0.000 C 
ATOM     11  C   UNL     1      52.775  50.507  39.463  0.00  0.00    +0.000 C 
ATOM     12  C   UNL     1      52.758  48.792  33.979  0.00  0.00    +0.000 C 
ATOM     13  C   UNL     1      55.113  50.801  37.306  0.00  0.00    +0.000 A 
ENDROOT
BRANCH  13  17
ATOM     14  F   UNL     1      54.748  52.993  38.133  0.00  0.00    +0.000 F 
ATOM     15  F   UNL     1      56.802  52.344  37.904  0.00  0.00    +0.000 F 
ATOM     16  F   UNL     1      55.568  51.522  39.508  0.00  0.00    +0.000 F 
ATOM     17  C   UNL     1      55.558  51.901  38.204  0.00  0.00    +0.000 C 
ENDBRANCH  13  17
BRANCH  10  18
ATOM     18  C   UNL     1      49.070  50.417  35.973  0.00  0.00    +0.000 C 
BRANCH  18  19
ATOM     19  C   UNL     1      48.267  51.280  34.985  0.00  0.00    +0.000 C 
BRANCH  19  20
ATOM     20  N   UNL     1      49.174  52.048  34.111  0.00  0.00    +0.000 NA
ATOM     21  H   UNL     1      49.516  52.888  34.570  0.00  0.00    +0.000 HD
ATOM     22  H   UNL     1      48.694  52.345  33.257  0.00  0.00    +0.000 HD
ENDBRANCH  19  20
BRANCH  19  23
ATOM     23  C   UNL     1      47.213  52.214  35.644  0.00  0.00    +0.000 C 
BRANCH  23  27
ATOM     24  F   UNL     1      45.829  52.632  33.147  0.00  0.00    +0.000 F 
ATOM     25  F   UNL     1      42.920  50.486  37.216  0.00  0.00    +0.000 F 
ATOM     26  F   UNL     1      41.768  50.927  34.772  0.00  0.00    +0.000 F 
ATOM     27  C   UNL     1      45.745  51.917  35.412  0.00  0.00    +0.000 A 
ATOM     28  C   UNL     1      45.130  52.118  34.166  0.00  0.00    +0.000 A 
ATOM     29  C   UNL     1      44.971  51.360  36.445  0.00  0.00    +0.000 A 
ATOM     30  C   UNL     1      43.636  51.026  36.222  0.00  0.00    +0.000 A 
ATOM     31  C   UNL     1      43.795  51.794  33.945  0.00  0.00    +0.000 A 
ATOM     32  C   UNL     1      43.053  51.245  34.979  0.00  0.00    +0.000 A 
ENDBRANCH  23  27
ENDBRANCH  19  23
ENDBRANCH  18  19
ENDBRANCH  10  18
TORSDOF 6
ENDMDL
MODEL 3
REMARK VINA RESULT:      -7.9     23.387     25.764
REMARK  Name = 10455621
REMARK  8 active torsions:
REMARK  status: ('A' for Active; 'I' for Inactive)
REMARK    1  A    between atoms: N_12  and  C_22
REMARK    2  A    between atoms: C_13  and  C_18
REMARK    3  A    between atoms: C_14  and  C_19
REMARK    4  A    between atoms: C_17  and  C_21
REMARK    5  A    between atoms: C_20  and  C_24
REMARK    6  A    between atoms: C_21  and  C_22
REMARK    7  A    between atoms: C_22  and  C_23
REMARK    8  A    between atoms: C_23  and  C_25
REMARK                            x       y       z     vdW  Elec       q    Type
REMARK                         _______ _______ _______ _____ _____    ______ ____
ROOT
ATOM      1  O   UNL     1      30.172  64.458  40.394  0.00  0.00    +0.000 OA
ATOM      2  N   UNL     1      30.374  65.093  38.181  0.00  0.00    +0.000 N 
ATOM      3  N   UNL     1      29.370  65.611  35.631  0.00  0.00    +0.000 N 
ATOM      4  N   UNL     1      27.814  64.081  35.706  0.00  0.00    +0.000 NA
ATOM      5  N   UNL     1      27.551  64.911  34.653  0.00  0.00    +0.000 NA
ATOM      6  C   UNL     1      30.571  66.336  36.015  0.00  0.00    +0.000 C 
ATOM      7  C   UNL     1      29.443  64.052  37.657  0.00  0.00    +0.000 C 
ATOM      8  C   UNL     1      31.293  65.619  37.168  0.00  0.00    +0.000 C 
ATOM      9  C   UNL     1      28.862  64.547  36.350  0.00  0.00    +0.000 A 
ATOM     10  C   UNL     1      30.669  65.194  39.546  0.00  0.00    +0.000 C 
ATOM     11  C   UNL     1      31.572  66.543  34.873  0.00  0.00    +0.000 C 
ATOM     12  C   UNL     1      28.300  63.617  38.582  0.00  0.00    +0.000 C 
ATOM     13  C   UNL     1      28.454  65.882  34.645  0.00  0.00    +0.000 A 
ENDROOT
BRANCH  13  17
ATOM     14  F   UNL     1      27.200  67.428  33.356  0.00  0.00    +0.000 F 
ATOM     15  F   UNL     1      29.135  66.830  32.588  0.00  0.00    +0.000 F 
ATOM     16  F   UNL     1      29.008  68.154  34.321  0.00  0.00    +0.000 F 
ATOM     17  C   UNL     1      28.455  67.061  33.736  0.00  0.00    +0.000 C 
ENDBRANCH  13  17
BRANCH  10  18
ATOM     18  C   UNL     1      31.619  66.320  39.959  0.00  0.00    +0.000 C 
BRANCH  18  19
ATOM     19  C   UNL     1      31.133  67.152  41.158  0.00  0.00    +0.000 C 
BRANCH  19  20
ATOM     20  N   UNL     1      31.139  66.340  42.389  0.00  0.00    +0.000 NA
ATOM     21  H   UNL     1      30.327  66.531  42.969  0.00  0.00    +0.000 HD
ATOM     22  H   UNL     1      31.968  66.540  42.955  0.00  0.00    +0.000 HD
ENDBRANCH  19  20
BRANCH  19  23
ATOM     23  C   UNL     1      29.752  67.839  40.956  0.00  0.00    +0.000 C 
BRANCH  23  27
ATOM     24  F   UNL     1      31.248  70.123  40.023  0.00  0.00    +0.000 F 
ATOM     25  F   UNL     1      27.338  68.257  36.727  0.00  0.00    +0.000 F 
ATOM     26  F   UNL     1      28.867  70.403  35.986  0.00  0.00    +0.000 F 
ATOM     27  C   UNL     1      29.495  68.562  39.649  0.00  0.00    +0.000 A 
ATOM     28  C   UNL     1      30.271  69.655  39.235  0.00  0.00    +0.000 A 
ATOM     29  C   UNL     1      28.493  68.099  38.778  0.00  0.00    +0.000 A 
ATOM     30  C   UNL     1      28.290  68.720  37.547  0.00  0.00    +0.000 A 
ATOM     31  C   UNL     1      30.064  70.282  38.010  0.00  0.00    +0.000 A 
ATOM     32  C   UNL     1      29.070  69.807  37.168  0.00  0.00    +0.000 A 
ENDBRANCH  23  27
ENDBRANCH  19  23
ENDBRANCH  18  19
ENDBRANCH  10  18
TORSDOF 6
ENDMDL
MODEL 4
REMARK VINA RESULT:      -7.7     12.516     14.695
REMARK  Name = 10455621
REMARK  8 active torsions:
REMARK  status: ('A' for Active; 'I' for Inactive)
REMARK    1  A    between atoms: N_12  and  C_22
REMARK    2  A    between atoms: C_13  and  C_18
REMARK    3  A    between atoms: C_14  and  C_19
REMARK    4  A    between atoms: C_17  and  C_21
REMARK    5  A    between atoms: C_20  and  C_24
REMARK    6  A    between atoms: C_21  and  C_22
REMARK    7  A    between atoms: C_22  and  C_23
REMARK    8  A    between atoms: C_23  and  C_25
REMARK                            x       y       z     vdW  Elec       q    Type
REMARK                         _______ _______ _______ _____ _____    ______ ____
ROOT
ATOM      1  O   UNL     1      43.207  77.302  52.485  0.00  0.00    +0.000 OA
ATOM      2  N   UNL     1      45.117  77.601  51.220  0.00  0.00    +0.000 N 
ATOM      3  N   UNL     1      47.709  78.540  50.796  0.00  0.00    +0.000 N 
ATOM      4  N   UNL     1      47.487  80.327  52.029  0.00  0.00    +0.000 NA
ATOM      5  N   UNL     1      48.817  80.141  51.777  0.00  0.00    +0.000 NA
ATOM      6  C   UNL     1      47.312  77.366  50.035  0.00  0.00    +0.000 C 
ATOM      7  C   UNL     1      45.346  79.009  51.652  0.00  0.00    +0.000 C 
ATOM      8  C   UNL     1      45.780  77.262  49.957  0.00  0.00    +0.000 C 
ATOM      9  C   UNL     1      46.822  79.318  51.511  0.00  0.00    +0.000 A 
ATOM     10  C   UNL     1      44.025  76.858  51.685  0.00  0.00    +0.000 C 
ATOM     11  C   UNL     1      47.871  77.324  48.608  0.00  0.00    +0.000 C 
ATOM     12  C   UNL     1      44.889  79.383  53.068  0.00  0.00    +0.000 C 
ATOM     13  C   UNL     1      48.963  79.018  51.087  0.00  0.00    +0.000 A 
ENDROOT
BRANCH  13  17
ATOM     14  F   UNL     1      50.560  78.553  49.396  0.00  0.00    +0.000 F 
ATOM     15  F   UNL     1      50.266  77.052  50.929  0.00  0.00    +0.000 F 
ATOM     16  F   UNL     1      51.299  78.915  51.409  0.00  0.00    +0.000 F 
ATOM     17  C   UNL     1      50.259  78.388  50.715  0.00  0.00    +0.000 C 
ENDBRANCH  13  17
BRANCH  10  18
ATOM     18  C   UNL     1      43.917  75.416  51.185  0.00  0.00    +0.000 C 
BRANCH  18  19
ATOM     19  C   UNL     1      44.287  74.353  52.234  0.00  0.00    +0.000 C 
BRANCH  19  20
ATOM     20  N   UNL     1      44.124  74.891  53.597  0.00  0.00    +0.000 NA
ATOM     21  H   UNL     1      43.477  75.674  53.618  0.00  0.00    +0.000 HD
ATOM     22  H   UNL     1      45.018  75.229  53.965  0.00  0.00    +0.000 HD
ENDBRANCH  19  20
BRANCH  19  23
ATOM     23  C   UNL     1      45.698  73.724  52.052  0.00  0.00    +0.000 C 
BRANCH  23  27
ATOM     24  F   UNL     1      47.621  74.180  49.951  0.00  0.00    +0.000 F 
ATOM     25  F   UNL     1      44.747  69.566  49.667  0.00  0.00    +0.000 F 
ATOM     26  F   UNL     1      46.631  70.143  47.767  0.00  0.00    +0.000 F 
ATOM     27  C   UNL     1      45.924  72.796  50.876  0.00  0.00    +0.000 A 
ATOM     28  C   UNL     1      46.893  73.057  49.895  0.00  0.00    +0.000 A 
ATOM     29  C   UNL     1      45.198  71.597  50.780  0.00  0.00    +0.000 A 
ATOM     30  C   UNL     1      45.442  70.708  49.734  0.00  0.00    +0.000 A 
ATOM     31  C   UNL     1      47.132  72.176  48.845  0.00  0.00    +0.000 A 
ATOM     32  C   UNL     1      46.403  70.999  48.772  0.00  0.00    +0.000 A 
ENDBRANCH  23  27
ENDBRANCH  19  23
ENDBRANCH  18  19
ENDBRANCH  10  18
TORSDOF 6
ENDMDL
MODEL 5
REMARK VINA RESULT:      -7.6     25.937     28.448
REMARK  Name = 10455621
REMARK  8 active torsions:
REMARK  status: ('A' for Active; 'I' for Inactive)
REMARK    1  A    between atoms: N_12  and  C_22
REMARK    2  A    between atoms: C_13  and  C_18
REMARK    3  A    between atoms: C_14  and  C_19
REMARK    4  A    between atoms: C_17  and  C_21
REMARK    5  A    between atoms: C_20  and  C_24
REMARK    6  A    between atoms: C_21  and  C_22
REMARK    7  A    between atoms: C_22  and  C_23
REMARK    8  A    between atoms: C_23  and  C_25
REMARK                            x       y       z     vdW  Elec       q    Type
REMARK                         _______ _______ _______ _____ _____    ______ ____
ROOT
ATOM      1  O   UNL     1      36.841  52.698  52.133  0.00  0.00    +0.000 OA
ATOM      2  N   UNL     1      37.306  51.630  50.138  0.00  0.00    +0.000 N 
ATOM      3  N   UNL     1      36.908  49.650  48.213  0.00  0.00    +0.000 N 
ATOM      4  N   UNL     1      36.309  48.101  49.631  0.00  0.00    +0.000 NA
ATOM      5  N   UNL     1      35.979  47.683  48.372  0.00  0.00    +0.000 NA
ATOM      6  C   UNL     1      37.466  50.908  47.744  0.00  0.00    +0.000 C 
ATOM      7  C   UNL     1      37.161  50.251  50.686  0.00  0.00    +0.000 C 
ATOM      8  C   UNL     1      38.100  51.689  48.907  0.00  0.00    +0.000 C 
ATOM      9  C   UNL     1      36.792  49.321  49.549  0.00  0.00    +0.000 A 
ATOM     10  C   UNL     1      37.137  52.763  50.943  0.00  0.00    +0.000 C 
ATOM     11  C   UNL     1      38.515  50.755  46.637  0.00  0.00    +0.000 C 
ATOM     12  C   UNL     1      36.160  50.063  51.833  0.00  0.00    +0.000 C 
ATOM     13  C   UNL     1      36.278  48.650  47.515  0.00  0.00    +0.000 A 
ENDROOT
BRANCH  13  17
ATOM     14  F   UNL     1      35.455  49.839  45.635  0.00  0.00    +0.000 F 
ATOM     15  F   UNL     1      35.043  47.714  45.729  0.00  0.00    +0.000 F 
ATOM     16  F   UNL     1      37.066  48.417  45.302  0.00  0.00    +0.000 F 
ATOM     17  C   UNL     1      35.965  48.649  46.060  0.00  0.00    +0.000 C 
ENDBRANCH  13  17
BRANCH  10  18
ATOM     18  C   UNL     1      37.288  54.120  50.255  0.00  0.00    +0.000 C 
BRANCH  18  19
ATOM     19  C   UNL     1      36.011  54.978  50.260  0.00  0.00    +0.000 C 
BRANCH  19  20
ATOM     20  N   UNL     1      34.881  54.223  50.832  0.00  0.00    +0.000 NA
ATOM     21  H   UNL     1      34.528  54.659  51.679  0.00  0.00    +0.000 HD
ATOM     22  H   UNL     1      35.166  53.271  51.079  0.00  0.00    +0.000 HD
ENDBRANCH  19  20
BRANCH  19  23
ATOM     23  C   UNL     1      35.629  55.585  48.880  0.00  0.00    +0.000 C 
BRANCH  23  27
ATOM     24  F   UNL     1      33.558  53.751  48.061  0.00  0.00    +0.000 F 
ATOM     25  F   UNL     1      37.943  54.067  44.852  0.00  0.00    +0.000 F 
ATOM     26  F   UNL     1      35.875  52.393  44.210  0.00  0.00    +0.000 F 
ATOM     27  C   UNL     1      35.703  54.692  47.658  0.00  0.00    +0.000 A 
ATOM     28  C   UNL     1      34.653  53.836  47.294  0.00  0.00    +0.000 A 
ATOM     29  C   UNL     1      36.822  54.756  46.810  0.00  0.00    +0.000 A 
ATOM     30  C   UNL     1      36.872  53.983  45.651  0.00  0.00    +0.000 A 
ATOM     31  C   UNL     1      34.704  53.056  46.143  0.00  0.00    +0.000 A 
ATOM     32  C   UNL     1      35.819  53.137  45.323  0.00  0.00    +0.000 A 
ENDBRANCH  23  27
ENDBRANCH  19  23
ENDBRANCH  18  19
ENDBRANCH  10  18
TORSDOF 6
ENDMDL
MODEL 6
REMARK VINA RESULT:      -7.5     26.426     28.554
REMARK  Name = 10455621
REMARK  8 active torsions:
REMARK  status: ('A' for Active; 'I' for Inactive)
REMARK    1  A    between atoms: N_12  and  C_22
REMARK    2  A    between atoms: C_13  and  C_18
REMARK    3  A    between atoms: C_14  and  C_19
REMARK    4  A    between atoms: C_17  and  C_21
REMARK    5  A    between atoms: C_20  and  C_24
REMARK    6  A    between atoms: C_21  and  C_22
REMARK    7  A    between atoms: C_22  and  C_23
REMARK    8  A    between atoms: C_23  and  C_25
REMARK                            x       y       z     vdW  Elec       q    Type
REMARK                         _______ _______ _______ _____ _____    ______ ____
ROOT
ATOM      1  O   UNL     1      36.627  48.067  49.717  0.00  0.00    +0.000 OA
ATOM      2  N   UNL     1      35.887  50.162  49.081  0.00  0.00    +0.000 N 
ATOM      3  N   UNL     1      35.603  52.917  49.412  0.00  0.00    +0.000 N 
ATOM      4  N   UNL     1      35.512  52.855  51.592  0.00  0.00    +0.000 NA
ATOM      5  N   UNL     1      35.719  54.150  51.206  0.00  0.00    +0.000 NA
ATOM      6  C   UNL     1      35.579  52.422  48.044  0.00  0.00    +0.000 C 
ATOM      7  C   UNL     1      35.480  50.584  50.451  0.00  0.00    +0.000 C 
ATOM      8  C   UNL     1      35.231  50.924  48.015  0.00  0.00    +0.000 C 
ATOM      9  C   UNL     1      35.526  52.095  50.519  0.00  0.00    +0.000 A 
ATOM     10  C   UNL     1      36.431  48.895  48.832  0.00  0.00    +0.000 C 
ATOM     11  C   UNL     1      34.601  53.163  47.126  0.00  0.00    +0.000 C 
ATOM     12  C   UNL     1      36.284  50.005  51.622  0.00  0.00    +0.000 C 
ATOM     13  C   UNL     1      35.844  54.182  49.887  0.00  0.00    +0.000 A 
ENDROOT
BRANCH  13  17
ATOM     14  F   UNL     1      36.729  56.382  49.832  0.00  0.00    +0.000 F 
ATOM     15  F   UNL     1      35.129  55.916  48.447  0.00  0.00    +0.000 F 
ATOM     16  F   UNL     1      37.127  55.093  48.127  0.00  0.00    +0.000 F 
ATOM     17  C   UNL     1      36.201  55.378  49.077  0.00  0.00    +0.000 C 
ENDBRANCH  13  17
BRANCH  10  18
ATOM     18  C   UNL     1      36.831  48.594  47.387  0.00  0.00    +0.000 C 
BRANCH  18  19
ATOM     19  C   UNL     1      35.741  47.887  46.563  0.00  0.00    +0.000 C 
BRANCH  19  20
ATOM     20  N   UNL     1      35.689  46.451  46.896  0.00  0.00    +0.000 NA
ATOM     21  H   UNL     1      36.552  45.975  46.646  0.00  0.00    +0.000 HD
ATOM     22  H   UNL     1      34.931  45.986  46.391  0.00  0.00    +0.000 HD
ENDBRANCH  19  20
BRANCH  19  23
ATOM     23  C   UNL     1      35.850  48.093  45.026  0.00  0.00    +0.000 C 
BRANCH  23  27
ATOM     24  F   UNL     1      38.606  48.671  44.395  0.00  0.00    +0.000 F 
ATOM     25  F   UNL     1      35.016  52.668  43.522  0.00  0.00    +0.000 F 
ATOM     26  F   UNL     1      37.667  53.040  42.956  0.00  0.00    +0.000 F 
ATOM     27  C   UNL     1      36.356  49.428  44.515  0.00  0.00    +0.000 A 
ATOM     28  C   UNL     1      37.706  49.644  44.201  0.00  0.00    +0.000 A 
ATOM     29  C   UNL     1      35.450  50.476  44.278  0.00  0.00    +0.000 A 
ATOM     30  C   UNL     1      35.896  51.686  43.751  0.00  0.00    +0.000 A 
ATOM     31  C   UNL     1      38.156  50.854  43.683  0.00  0.00    +0.000 A 
ATOM     32  C   UNL     1      37.242  51.873  43.458  0.00  0.00    +0.000 A 
ENDBRANCH  23  27
ENDBRANCH  19  23
ENDBRANCH  18  19
ENDBRANCH  10  18
TORSDOF 6
ENDMDL
MODEL 7
REMARK VINA RESULT:      -7.4     20.751     22.310
REMARK  Name = 10455621
REMARK  8 active torsions:
REMARK  status: ('A' for Active; 'I' for Inactive)
REMARK    1  A    between atoms: N_12  and  C_22
REMARK    2  A    between atoms: C_13  and  C_18
REMARK    3  A    between atoms: C_14  and  C_19
REMARK    4  A    between atoms: C_17  and  C_21
REMARK    5  A    between atoms: C_20  and  C_24
REMARK    6  A    between atoms: C_21  and  C_22
REMARK    7  A    between atoms: C_22  and  C_23
REMARK    8  A    between atoms: C_23  and  C_25
REMARK                            x       y       z     vdW  Elec       q    Type
REMARK                         _______ _______ _______ _____ _____    ______ ____
ROOT
ATOM      1  O   UNL     1      48.171  51.701  38.549  0.00  0.00    +0.000 OA
ATOM      2  N   UNL     1      50.238  51.571  37.524  0.00  0.00    +0.000 N 
ATOM      3  N   UNL     1      52.430  50.190  36.492  0.00  0.00    +0.000 N 
ATOM      4  N   UNL     1      52.338  48.550  37.930  0.00  0.00    +0.000 NA
ATOM      5  N   UNL     1      53.164  48.179  36.906  0.00  0.00    +0.000 NA
ATOM      6  C   UNL     1      52.153  51.494  35.910  0.00  0.00    +0.000 C 
ATOM      7  C   UNL     1      50.756  50.482  38.402  0.00  0.00    +0.000 C 
ATOM      8  C   UNL     1      51.295  52.342  36.864  0.00  0.00    +0.000 C 
ATOM      9  C   UNL     1      51.827  49.727  37.644  0.00  0.00    +0.000 A 
ATOM     10  C   UNL     1      48.954  52.104  37.694  0.00  0.00    +0.000 C 
ATOM     11  C   UNL     1      53.406  52.297  35.544  0.00  0.00    +0.000 C 
ATOM     12  C   UNL     1      49.727  49.483  38.945  0.00  0.00    +0.000 C 
ATOM     13  C   UNL     1      53.168  49.143  35.997  0.00  0.00    +0.000 A 
ENDROOT
BRANCH  13  17
ATOM     14  F   UNL     1      54.996  49.808  34.639  0.00  0.00    +0.000 F 
ATOM     15  F   UNL     1      53.069  49.580  33.675  0.00  0.00    +0.000 F 
ATOM     16  F   UNL     1      54.181  47.817  34.327  0.00  0.00    +0.000 F 
ATOM     17  C   UNL     1      53.842  49.085  34.670  0.00  0.00    +0.000 C 
ENDBRANCH  13  17
BRANCH  10  18
ATOM     18  C   UNL     1      48.534  53.199  36.713  0.00  0.00    +0.000 C 
BRANCH  18  19
ATOM     19  C   UNL     1      47.056  53.137  36.289  0.00  0.00    +0.000 C 
BRANCH  19  20
ATOM     20  N   UNL     1      46.197  53.771  37.307  0.00  0.00    +0.000 NA
ATOM     21  H   UNL     1      46.326  53.350  38.223  0.00  0.00    +0.000 HD
ATOM     22  H   UNL     1      45.208  53.669  37.065  0.00  0.00    +0.000 HD
ENDBRANCH  19  20
BRANCH  19  23
ATOM     23  C   UNL     1      46.539  51.712  35.940  0.00  0.00    +0.000 C 
BRANCH  23  27
ATOM     24  F   UNL     1      45.225  52.266  33.432  0.00  0.00    +0.000 F 
ATOM     25  F   UNL     1      42.108  50.290  37.432  0.00  0.00    +0.000 F 
ATOM     26  F   UNL     1      41.026  50.849  34.981  0.00  0.00    +0.000 F 
ATOM     27  C   UNL     1      45.056  51.529  35.685  0.00  0.00    +0.000 A 
ATOM     28  C   UNL     1      44.476  51.792  34.435  0.00  0.00    +0.000 A 
ATOM     29  C   UNL     1      44.229  51.017  36.700  0.00  0.00    +0.000 A 
ATOM     30  C   UNL     1      42.876  50.788  36.456  0.00  0.00    +0.000 A 
ATOM     31  C   UNL     1      43.123  51.573  34.192  0.00  0.00    +0.000 A 
ATOM     32  C   UNL     1      42.328  51.067  35.209  0.00  0.00    +0.000 A 
ENDBRANCH  23  27
ENDBRANCH  19  23
ENDBRANCH  18  19
ENDBRANCH  10  18
TORSDOF 6
ENDMDL
MODEL 8
REMARK VINA RESULT:      -7.4     21.278     22.602
REMARK  Name = 10455621
REMARK  8 active torsions:
REMARK  status: ('A' for Active; 'I' for Inactive)
REMARK    1  A    between atoms: N_12  and  C_22
REMARK    2  A    between atoms: C_13  and  C_18
REMARK    3  A    between atoms: C_14  and  C_19
REMARK    4  A    between atoms: C_17  and  C_21
REMARK    5  A    between atoms: C_20  and  C_24
REMARK    6  A    between atoms: C_21  and  C_22
REMARK    7  A    between atoms: C_22  and  C_23
REMARK    8  A    between atoms: C_23  and  C_25
REMARK                            x       y       z     vdW  Elec       q    Type
REMARK                         _______ _______ _______ _____ _____    ______ ____
ROOT
ATOM      1  O   UNL     1      46.812  52.099  36.652  0.00  0.00    +0.000 OA
ATOM      2  N   UNL     1      48.978  51.830  35.894  0.00  0.00    +0.000 N 
ATOM      3  N   UNL     1      51.315  50.364  35.480  0.00  0.00    +0.000 N 
ATOM      4  N   UNL     1      51.132  49.167  37.297  0.00  0.00    +0.000 NA
ATOM      5  N   UNL     1      52.074  48.588  36.493  0.00  0.00    +0.000 NA
ATOM      6  C   UNL     1      51.052  51.444  34.542  0.00  0.00    +0.000 C 
ATOM      7  C   UNL     1      49.440  51.051  37.078  0.00  0.00    +0.000 C 
ATOM      8  C   UNL     1      50.070  52.461  35.147  0.00  0.00    +0.000 C 
ATOM      9  C   UNL     1      50.611  50.190  36.656  0.00  0.00    +0.000 A 
ATOM     10  C   UNL     1      47.665  52.306  35.794  0.00  0.00    +0.000 C 
ATOM     11  C   UNL     1      52.307  52.197  34.086  0.00  0.00    +0.000 C 
ATOM     12  C   UNL     1      48.397  50.171  37.778  0.00  0.00    +0.000 C 
ATOM     13  C   UNL     1      52.138  49.272  35.359  0.00  0.00    +0.000 A 
ENDROOT
BRANCH  13  17
ATOM     14  F   UNL     1      52.799  47.593  33.819  0.00  0.00    +0.000 F 
ATOM     15  F   UNL     1      54.275  49.082  34.364  0.00  0.00    +0.000 F 
ATOM     16  F   UNL     1      52.600  49.625  33.071  0.00  0.00    +0.000 F 
ATOM     17  C   UNL     1      52.947  48.902  34.166  0.00  0.00    +0.000 C 
ENDBRANCH  13  17
BRANCH  10  18
ATOM     18  C   UNL     1      47.310  53.070  34.518  0.00  0.00    +0.000 C 
BRANCH  18  19
ATOM     19  C   UNL     1      46.217  52.403  33.664  0.00  0.00    +0.000 C 
BRANCH  19  20
ATOM     20  N   UNL     1      46.632  52.337  32.250  0.00  0.00    +0.000 NA
ATOM     21  H   UNL     1      46.651  51.380  31.908  0.00  0.00    +0.000 HD
ATOM     22  H   UNL     1      47.574  52.719  32.128  0.00  0.00    +0.000 HD
ENDBRANCH  19  20
BRANCH  19  23
ATOM     23  C   UNL     1      44.806  53.044  33.796  0.00  0.00    +0.000 C 
BRANCH  23  27
ATOM     24  F   UNL     1      43.278  50.905  32.606  0.00  0.00    +0.000 F 
ATOM     25  F   UNL     1      42.237  52.034  37.828  0.00  0.00    +0.000 F 
ATOM     26  F   UNL     1      40.894  50.019  36.552  0.00  0.00    +0.000 F 
ATOM     27  C   UNL     1      43.724  52.258  34.509  0.00  0.00    +0.000 A 
ATOM     28  C   UNL     1      43.030  51.210  33.887  0.00  0.00    +0.000 A 
ATOM     29  C   UNL     1      43.438  52.527  35.859  0.00  0.00    +0.000 A 
ATOM     30  C   UNL     1      42.487  51.769  36.540  0.00  0.00    +0.000 A 
ATOM     31  C   UNL     1      42.074  50.458  34.562  0.00  0.00    +0.000 A 
ATOM     32  C   UNL     1      41.809  50.742  35.894  0.00  0.00    +0.000 A 
ENDBRANCH  23  27
ENDBRANCH  19  23
ENDBRANCH  18  19
ENDBRANCH  10  18
TORSDOF 6
ENDMDL
MODEL 9
REMARK VINA RESULT:      -7.3     20.932     22.558
REMARK  Name = 10455621
REMARK  8 active torsions:
REMARK  status: ('A' for Active; 'I' for Inactive)
REMARK    1  A    between atoms: N_12  and  C_22
REMARK    2  A    between atoms: C_13  and  C_18
REMARK    3  A    between atoms: C_14  and  C_19
REMARK    4  A    between atoms: C_17  and  C_21
REMARK    5  A    between atoms: C_20  and  C_24
REMARK    6  A    between atoms: C_21  and  C_22
REMARK    7  A    between atoms: C_22  and  C_23
REMARK    8  A    between atoms: C_23  and  C_25
REMARK                            x       y       z     vdW  Elec       q    Type
REMARK                         _______ _______ _______ _____ _____    ______ ____
ROOT
ATOM      1  O   UNL     1      49.176  49.283  40.468  0.00  0.00    +0.000 OA
ATOM      2  N   UNL     1      50.726  50.352  41.807  0.00  0.00    +0.000 N 
ATOM      3  N   UNL     1      52.376  50.550  44.047  0.00  0.00    +0.000 N 
ATOM      4  N   UNL     1      51.044  49.452  45.383  0.00  0.00    +0.000 NA
ATOM      5  N   UNL     1      52.269  49.550  45.981  0.00  0.00    +0.000 NA
ATOM      6  C   UNL     1      52.800  51.281  42.863  0.00  0.00    +0.000 C 
ATOM      7  C   UNL     1      50.073  49.979  43.094  0.00  0.00    +0.000 C 
ATOM      8  C   UNL     1      51.611  51.515  41.916  0.00  0.00    +0.000 C 
ATOM      9  C   UNL     1      51.126  49.979  44.182  0.00  0.00    +0.000 A 
ATOM     10  C   UNL     1      50.192  49.964  40.572  0.00  0.00    +0.000 C 
ATOM     11  C   UNL     1      53.454  52.635  43.161  0.00  0.00    +0.000 C 
ATOM     12  C   UNL     1      49.319  48.644  43.127  0.00  0.00    +0.000 C 
ATOM     13  C   UNL     1      53.100  50.155  45.144  0.00  0.00    +0.000 A 
ENDROOT
BRANCH  13  17
ATOM     14  F   UNL     1      55.282  50.182  44.215  0.00  0.00    +0.000 F 
ATOM     15  F   UNL     1      55.075  49.472  46.251  0.00  0.00    +0.000 F 
ATOM     16  F   UNL     1      54.847  51.598  45.807  0.00  0.00    +0.000 F 
ATOM     17  C   UNL     1      54.560  50.350  45.358  0.00  0.00    +0.000 C 
ENDBRANCH  13  17
BRANCH  10  18
ATOM     18  C   UNL     1      50.970  50.389  39.326  0.00  0.00    +0.000 C 
BRANCH  18  19
ATOM     19  C   UNL     1      51.880  49.294  38.744  0.00  0.00    +0.000 C 
BRANCH  19  20
ATOM     20  N   UNL     1      53.252  49.804  38.558  0.00  0.00    +0.000 NA
ATOM     21  H   UNL     1      53.305  50.806  38.718  0.00  0.00    +0.000 HD
ATOM     22  H   UNL     1      53.579  49.633  37.604  0.00  0.00    +0.000 HD
ENDBRANCH  19  20
BRANCH  19  23
ATOM     23  C   UNL     1      51.354  48.637  37.436  0.00  0.00    +0.000 C 
BRANCH  23  27
ATOM     24  F   UNL     1      53.176  47.547  35.483  0.00  0.00    +0.000 F 
ATOM     25  F   UNL     1      50.724  52.230  34.184  0.00  0.00    +0.000 F 
ATOM     26  F   UNL     1      52.465  51.046  32.435  0.00  0.00    +0.000 F 
ATOM     27  C   UNL     1      51.694  49.295  36.114  0.00  0.00    +0.000 A 
ATOM     28  C   UNL     1      52.571  48.706  35.191  0.00  0.00    +0.000 A 
ATOM     29  C   UNL     1      51.073  50.503  35.753  0.00  0.00    +0.000 A 
ATOM     30  C   UNL     1      51.334  51.085  34.513  0.00  0.00    +0.000 A 
ATOM     31  C   UNL     1      52.840  49.289  33.957  0.00  0.00    +0.000 A 
ATOM     32  C   UNL     1      52.214  50.481  33.623  0.00  0.00    +0.000 A 
ENDBRANCH  23  27
ENDBRANCH  19  23
ENDBRANCH  18  19
ENDBRANCH  10  18
TORSDOF 6
ENDMDL
