MODEL 1
REMARK VINA RESULT:      -8.9      0.000      0.000
REMARK  Name = 24776584
REMARK  8 active torsions:
REMARK  status: ('A' for Active; 'I' for Inactive)
REMARK    1  A    between atoms: N_15  and  C_24
REMARK    2  A    between atoms: C_16  and  C_20
REMARK    3  A    between atoms: C_20  and  C_25
REMARK    4  A    between atoms: C_21  and  C_22
REMARK    5  A    between atoms: C_22  and  C_24
REMARK    6  A    between atoms: C_23  and  C_27
REMARK    7  A    between atoms: C_24  and  C_26
REMARK    8  A    between atoms: C_26  and  C_28
REMARK                            x       y       z     vdW  Elec       q    Type
REMARK                         _______ _______ _______ _____ _____    ______ ____
ROOT
ATOM      1  O   UNL     1      54.584  70.761  37.161  0.00  0.00    +0.000 OA
ATOM      2  N   UNL     1      55.155  70.640  39.371  0.00  0.00    +0.000 N 
ATOM      3  N   UNL     1      56.770  71.504  41.474  0.00  0.00    +0.000 N 
ATOM      4  N   UNL     1      58.641  71.498  40.358  0.00  0.00    +0.000 NA
ATOM      5  N   UNL     1      58.875  72.031  41.601  0.00  0.00    +0.000 NA
ATOM      6  C   UNL     1      56.621  70.641  39.085  0.00  0.00    +0.000 C 
ATOM      7  C   UNL     1      54.784  70.291  40.749  0.00  0.00    +0.000 C 
ATOM      8  C   UNL     1      57.364  71.202  40.276  0.00  0.00    +0.000 A 
ATOM      9  C   UNL     1      55.367  71.287  41.742  0.00  0.00    +0.000 C 
ATOM     10  C   UNL     1      54.230  70.677  38.335  0.00  0.00    +0.000 C 
ATOM     11  C   UNL     1      57.737  72.050  42.274  0.00  0.00    +0.000 A 
ENDROOT
BRANCH  11  15
ATOM     12  F   UNL     1      56.259  73.031  43.845  0.00  0.00    +0.000 F 
ATOM     13  F   UNL     1      57.704  71.591  44.589  0.00  0.00    +0.000 F 
ATOM     14  F   UNL     1      58.355  73.583  43.967  0.00  0.00    +0.000 F 
ATOM     15  C   UNL     1      57.522  72.559  43.655  0.00  0.00    +0.000 C 
ENDBRANCH  11  15
BRANCH   6  16
ATOM     16  C   UNL     1      57.132  71.308  37.799  0.00  0.00    +0.000 C 
BRANCH  16  20
ATOM     17  F   UNL     1      59.296  70.541  37.107  0.00  0.00    +0.000 F 
ATOM     18  F   UNL     1      57.722  70.618  35.607  0.00  0.00    +0.000 F 
ATOM     19  F   UNL     1      57.662  69.101  37.154  0.00  0.00    +0.000 F 
ATOM     20  C   UNL     1      57.965  70.399  36.919  0.00  0.00    +0.000 C 
ENDBRANCH  16  20
ENDBRANCH   6  16
BRANCH  10  21
ATOM     21  C   UNL     1      52.752  70.670  38.689  0.00  0.00    +0.000 C 
BRANCH  21  22
ATOM     22  C   UNL     1      51.889  71.242  37.550  0.00  0.00    +0.000 C 
BRANCH  22  23
ATOM     23  N   UNL     1      52.117  72.697  37.476  0.00  0.00    +0.000 NA
ATOM     24  H   UNL     1      51.709  73.143  38.300  0.00  0.00    +0.000 HD
ATOM     25  H   UNL     1      51.607  73.085  36.681  0.00  0.00    +0.000 HD
ENDBRANCH  22  23
BRANCH  22  26
ATOM     26  C   UNL     1      50.388  70.936  37.794  0.00  0.00    +0.000 C 
BRANCH  26  30
ATOM     27  F   UNL     1      50.090  69.957  40.433  0.00  0.00    +0.000 F 
ATOM     28  F   UNL     1      48.099  74.931  39.449  0.00  0.00    +0.000 F 
ATOM     29  F   UNL     1      47.869  73.819  41.938  0.00  0.00    +0.000 F 
ATOM     30  C   UNL     1      49.746  71.737  38.900  0.00  0.00    +0.000 A 
ATOM     31  C   UNL     1      49.613  71.186  40.180  0.00  0.00    +0.000 A 
ATOM     32  C   UNL     1      49.216  73.013  38.657  0.00  0.00    +0.000 A 
ATOM     33  C   UNL     1      48.592  73.712  39.688  0.00  0.00    +0.000 A 
ATOM     34  C   UNL     1      48.986  71.878  41.207  0.00  0.00    +0.000 A 
ATOM     35  C   UNL     1      48.479  73.145  40.953  0.00  0.00    +0.000 A 
ENDBRANCH  26  30
ENDBRANCH  22  26
ENDBRANCH  21  22
ENDBRANCH  10  21
TORSDOF 8
ENDMDL
MODEL 2
REMARK VINA RESULT:      -8.7      1.830      4.772
REMARK  Name = 24776584
REMARK  8 active torsions:
REMARK  status: ('A' for Active; 'I' for Inactive)
REMARK    1  A    between atoms: N_15  and  C_24
REMARK    2  A    between atoms: C_16  and  C_20
REMARK    3  A    between atoms: C_20  and  C_25
REMARK    4  A    between atoms: C_21  and  C_22
REMARK    5  A    between atoms: C_22  and  C_24
REMARK    6  A    between atoms: C_23  and  C_27
REMARK    7  A    between atoms: C_24  and  C_26
REMARK    8  A    between atoms: C_26  and  C_28
REMARK                            x       y       z     vdW  Elec       q    Type
REMARK                         _______ _______ _______ _____ _____    ______ ____
ROOT
ATOM      1  O   UNL     1      54.207  70.601  43.059  0.00  0.00    +0.000 OA
ATOM      2  N   UNL     1      55.181  70.904  41.014  0.00  0.00    +0.000 N 
ATOM      3  N   UNL     1      57.440  70.715  39.390  0.00  0.00    +0.000 N 
ATOM      4  N   UNL     1      58.857  71.472  40.861  0.00  0.00    +0.000 NA
ATOM      5  N   UNL     1      59.556  71.056  39.755  0.00  0.00    +0.000 NA
ATOM      6  C   UNL     1      56.429  71.484  41.595  0.00  0.00    +0.000 C 
ATOM      7  C   UNL     1      55.034  71.060  39.560  0.00  0.00    +0.000 C 
ATOM      8  C   UNL     1      57.582  71.244  40.647  0.00  0.00    +0.000 A 
ATOM      9  C   UNL     1      56.163  70.359  38.818  0.00  0.00    +0.000 C 
ATOM     10  C   UNL     1      54.128  70.522  41.835  0.00  0.00    +0.000 C 
ATOM     11  C   UNL     1      58.698  70.582  38.867  0.00  0.00    +0.000 A 
ENDROOT
BRANCH  11  15
ATOM     12  F   UNL     1      58.454  68.783  37.344  0.00  0.00    +0.000 F 
ATOM     13  F   UNL     1      58.559  70.790  36.521  0.00  0.00    +0.000 F 
ATOM     14  F   UNL     1      60.349  69.843  37.342  0.00  0.00    +0.000 F 
ATOM     15  C   UNL     1      59.016  70.009  37.532  0.00  0.00    +0.000 C 
ENDBRANCH  11  15
BRANCH   6  16
ATOM     16  C   UNL     1      56.845  71.091  43.020  0.00  0.00    +0.000 C 
BRANCH  16  20
ATOM     17  F   UNL     1      57.983  73.153  43.465  0.00  0.00    +0.000 F 
ATOM     18  F   UNL     1      57.520  71.867  45.159  0.00  0.00    +0.000 F 
ATOM     19  F   UNL     1      55.928  72.945  44.157  0.00  0.00    +0.000 F 
ATOM     20  C   UNL     1      57.081  72.268  43.944  0.00  0.00    +0.000 C 
ENDBRANCH  16  20
ENDBRANCH   6  16
BRANCH  10  21
ATOM     21  C   UNL     1      52.882  69.942  41.185  0.00  0.00    +0.000 C 
BRANCH  21  22
ATOM     22  C   UNL     1      51.615  70.250  42.002  0.00  0.00    +0.000 C 
BRANCH  22  23
ATOM     23  N   UNL     1      51.605  69.381  43.194  0.00  0.00    +0.000 NA
ATOM     24  H   UNL     1      51.008  68.571  43.013  0.00  0.00    +0.000 HD
ATOM     25  H   UNL     1      51.163  69.871  43.974  0.00  0.00    +0.000 HD
ENDBRANCH  22  23
BRANCH  22  26
ATOM     26  C   UNL     1      50.342  70.019  41.147  0.00  0.00    +0.000 C 
BRANCH  26  30
ATOM     27  F   UNL     1      50.649  70.936  38.486  0.00  0.00    +0.000 F 
ATOM     28  F   UNL     1      47.609  74.029  41.783  0.00  0.00    +0.000 F 
ATOM     29  F   UNL     1      48.035  74.781  39.188  0.00  0.00    +0.000 F 
ATOM     30  C   UNL     1      49.686  71.277  40.629  0.00  0.00    +0.000 A 
ATOM     31  C   UNL     1      49.893  71.683  39.306  0.00  0.00    +0.000 A 
ATOM     32  C   UNL     1      48.912  72.090  41.471  0.00  0.00    +0.000 A 
ATOM     33  C   UNL     1      48.353  73.265  40.976  0.00  0.00    +0.000 A 
ATOM     34  C   UNL     1      49.342  72.857  38.812  0.00  0.00    +0.000 A 
ATOM     35  C   UNL     1      48.569  73.644  39.654  0.00  0.00    +0.000 A 
ENDBRANCH  26  30
ENDBRANCH  22  26
ENDBRANCH  21  22
ENDBRANCH  10  21
TORSDOF 8
ENDMDL
MODEL 3
REMARK VINA RESULT:      -8.2     26.957     29.884
REMARK  Name = 24776584
REMARK  8 active torsions:
REMARK  status: ('A' for Active; 'I' for Inactive)
REMARK    1  A    between atoms: N_15  and  C_24
REMARK    2  A    between atoms: C_16  and  C_20
REMARK    3  A    between atoms: C_20  and  C_25
REMARK    4  A    between atoms: C_21  and  C_22
REMARK    5  A    between atoms: C_22  and  C_24
REMARK    6  A    between atoms: C_23  and  C_27
REMARK    7  A    between atoms: C_24  and  C_26
REMARK    8  A    between atoms: C_26  and  C_28
REMARK                            x       y       z     vdW  Elec       q    Type
REMARK                         _______ _______ _______ _____ _____    ______ ____
ROOT
ATOM      1  O   UNL     1      35.721  47.736  49.269  0.00  0.00    +0.000 OA
ATOM      2  N   UNL     1      35.200  49.961  49.277  0.00  0.00    +0.000 N 
ATOM      3  N   UNL     1      35.756  52.544  50.169  0.00  0.00    +0.000 N 
ATOM      4  N   UNL     1      36.154  52.002  52.241  0.00  0.00    +0.000 NA
ATOM      5  N   UNL     1      36.438  53.335  52.075  0.00  0.00    +0.000 NA
ATOM      6  C   UNL     1      35.395  50.094  50.752  0.00  0.00    +0.000 C 
ATOM      7  C   UNL     1      34.540  51.102  48.626  0.00  0.00    +0.000 C 
ATOM      8  C   UNL     1      35.764  51.522  51.082  0.00  0.00    +0.000 A 
ATOM      9  C   UNL     1      35.360  52.374  48.790  0.00  0.00    +0.000 C 
ATOM     10  C   UNL     1      35.364  48.734  48.647  0.00  0.00    +0.000 C 
ATOM     11  C   UNL     1      36.212  53.662  50.814  0.00  0.00    +0.000 A 
ENDROOT
BRANCH  11  15
ATOM     12  F   UNL     1      37.270  54.960  49.138  0.00  0.00    +0.000 F 
ATOM     13  F   UNL     1      35.242  55.500  49.696  0.00  0.00    +0.000 F 
ATOM     14  F   UNL     1      36.904  55.912  51.055  0.00  0.00    +0.000 F 
ATOM     15  C   UNL     1      36.403  54.997  50.188  0.00  0.00    +0.000 C 
ENDBRANCH  11  15
BRANCH   6  16
ATOM     16  C   UNL     1      36.358  49.135  51.469  0.00  0.00    +0.000 C 
BRANCH  16  20
ATOM     17  F   UNL     1      36.590  47.540  53.243  0.00  0.00    +0.000 F 
ATOM     18  F   UNL     1      34.634  47.739  52.311  0.00  0.00    +0.000 F 
ATOM     19  F   UNL     1      35.375  49.310  53.607  0.00  0.00    +0.000 F 
ATOM     20  C   UNL     1      35.749  48.421  52.658  0.00  0.00    +0.000 C 
ENDBRANCH  16  20
ENDBRANCH   6  16
BRANCH  10  21
ATOM     21  C   UNL     1      35.148  48.661  47.145  0.00  0.00    +0.000 C 
BRANCH  21  22
ATOM     22  C   UNL     1      36.228  47.811  46.452  0.00  0.00    +0.000 C 
BRANCH  22  23
ATOM     23  N   UNL     1      36.018  46.398  46.823  0.00  0.00    +0.000 NA
ATOM     24  H   UNL     1      36.357  45.800  46.067  0.00  0.00    +0.000 HD
ATOM     25  H   UNL     1      35.018  46.205  46.891  0.00  0.00    +0.000 HD
ENDBRANCH  22  23
BRANCH  22  26
ATOM     26  C   UNL     1      37.645  48.281  46.869  0.00  0.00    +0.000 C 
BRANCH  26  30
ATOM     27  F   UNL     1      37.602  50.058  44.666  0.00  0.00    +0.000 F 
ATOM     28  F   UNL     1      41.593  46.351  44.716  0.00  0.00    +0.000 F 
ATOM     29  F   UNL     1      41.384  48.128  42.646  0.00  0.00    +0.000 F 
ATOM     30  C   UNL     1      38.677  48.250  45.766  0.00  0.00    +0.000 A 
ATOM     31  C   UNL     1      38.587  49.147  44.696  0.00  0.00    +0.000 A 
ATOM     32  C   UNL     1      39.701  47.291  45.760  0.00  0.00    +0.000 A 
ATOM     33  C   UNL     1      40.614  47.262  44.708  0.00  0.00    +0.000 A 
ATOM     34  C   UNL     1      39.491  49.115  43.644  0.00  0.00    +0.000 A 
ATOM     35  C   UNL     1      40.507  48.169  43.658  0.00  0.00    +0.000 A 
ENDBRANCH  26  30
ENDBRANCH  22  26
ENDBRANCH  21  22
ENDBRANCH  10  21
TORSDOF 8
ENDMDL
MODEL 4
REMARK VINA RESULT:      -8.1     23.881     26.753
REMARK  Name = 24776584
REMARK  8 active torsions:
REMARK  status: ('A' for Active; 'I' for Inactive)
REMARK    1  A    between atoms: N_15  and  C_24
REMARK    2  A    between atoms: C_16  and  C_20
REMARK    3  A    between atoms: C_20  and  C_25
REMARK    4  A    between atoms: C_21  and  C_22
REMARK    5  A    between atoms: C_22  and  C_24
REMARK    6  A    between atoms: C_23  and  C_27
REMARK    7  A    between atoms: C_24  and  C_26
REMARK    8  A    between atoms: C_26  and  C_28
REMARK                            x       y       z     vdW  Elec       q    Type
REMARK                         _______ _______ _______ _____ _____    ______ ____
ROOT
ATOM      1  O   UNL     1      36.166  51.590  39.656  0.00  0.00    +0.000 OA
ATOM      2  N   UNL     1      38.412  51.622  39.235  0.00  0.00    +0.000 N 
ATOM      3  N   UNL     1      40.508  52.154  37.474  0.00  0.00    +0.000 N 
ATOM      4  N   UNL     1      39.568  51.280  35.713  0.00  0.00    +0.000 NA
ATOM      5  N   UNL     1      40.743  51.881  35.330  0.00  0.00    +0.000 NA
ATOM      6  C   UNL     1      38.256  51.037  37.870  0.00  0.00    +0.000 C 
ATOM      7  C   UNL     1      39.789  51.659  39.749  0.00  0.00    +0.000 C 
ATOM      8  C   UNL     1      39.418  51.467  37.004  0.00  0.00    +0.000 A 
ATOM      9  C   UNL     1      40.682  52.515  38.861  0.00  0.00    +0.000 C 
ATOM     10  C   UNL     1      37.306  51.831  40.048  0.00  0.00    +0.000 C 
ATOM     11  C   UNL     1      41.307  52.424  36.395  0.00  0.00    +0.000 A 
ENDROOT
BRANCH  11  15
ATOM     12  F   UNL     1      43.477  52.659  37.317  0.00  0.00    +0.000 F 
ATOM     13  F   UNL     1      43.204  53.214  35.235  0.00  0.00    +0.000 F 
ATOM     14  F   UNL     1      42.399  54.479  36.826  0.00  0.00    +0.000 F 
ATOM     15  C   UNL     1      42.580  53.190  36.441  0.00  0.00    +0.000 C 
ENDBRANCH  11  15
BRANCH   6  16
ATOM     16  C   UNL     1      36.940  51.254  37.108  0.00  0.00    +0.000 C 
BRANCH  16  20
ATOM     17  F   UNL     1      36.233  49.031  37.663  0.00  0.00    +0.000 F 
ATOM     18  F   UNL     1      36.830  49.420  35.607  0.00  0.00    +0.000 F 
ATOM     19  F   UNL     1      34.959  50.218  36.354  0.00  0.00    +0.000 F 
ATOM     20  C   UNL     1      36.246  49.973  36.694  0.00  0.00    +0.000 C 
ENDBRANCH  16  20
ENDBRANCH   6  16
BRANCH  10  21
ATOM     21  C   UNL     1      37.529  52.427  41.429  0.00  0.00    +0.000 C 
BRANCH  21  22
ATOM     22  C   UNL     1      36.566  51.830  42.471  0.00  0.00    +0.000 C 
BRANCH  22  23
ATOM     23  N   UNL     1      35.296  52.578  42.415  0.00  0.00    +0.000 NA
ATOM     24  H   UNL     1      34.896  52.631  43.353  0.00  0.00    +0.000 HD
ATOM     25  H   UNL     1      34.614  52.057  41.861  0.00  0.00    +0.000 HD
ENDBRANCH  22  23
BRANCH  22  26
ATOM     26  C   UNL     1      37.182  51.905  43.892  0.00  0.00    +0.000 C 
BRANCH  26  30
ATOM     27  F   UNL     1      38.265  49.291  43.839  0.00  0.00    +0.000 F 
ATOM     28  F   UNL     1      34.343  50.219  47.504  0.00  0.00    +0.000 F 
ATOM     29  F   UNL     1      35.480  47.739  47.295  0.00  0.00    +0.000 F 
ATOM     30  C   UNL     1      36.741  50.813  44.836  0.00  0.00    +0.000 A 
ATOM     31  C   UNL     1      37.306  49.536  44.745  0.00  0.00    +0.000 A 
ATOM     32  C   UNL     1      35.722  51.035  45.775  0.00  0.00    +0.000 A 
ATOM     33  C   UNL     1      35.308  49.996  46.606  0.00  0.00    +0.000 A 
ATOM     34  C   UNL     1      36.891  48.497  45.567  0.00  0.00    +0.000 A 
ATOM     35  C   UNL     1      35.891  48.736  46.499  0.00  0.00    +0.000 A 
ENDBRANCH  26  30
ENDBRANCH  22  26
ENDBRANCH  21  22
ENDBRANCH  10  21
TORSDOF 8
ENDMDL
MODEL 5
REMARK VINA RESULT:      -7.8     26.936     29.289
REMARK  Name = 24776584
REMARK  8 active torsions:
REMARK  status: ('A' for Active; 'I' for Inactive)
REMARK    1  A    between atoms: N_15  and  C_24
REMARK    2  A    between atoms: C_16  and  C_20
REMARK    3  A    between atoms: C_20  and  C_25
REMARK    4  A    between atoms: C_21  and  C_22
REMARK    5  A    between atoms: C_22  and  C_24
REMARK    6  A    between atoms: C_23  and  C_27
REMARK    7  A    between atoms: C_24  and  C_26
REMARK    8  A    between atoms: C_26  and  C_28
REMARK                            x       y       z     vdW  Elec       q    Type
REMARK                         _______ _______ _______ _____ _____    ______ ____
ROOT
ATOM      1  O   UNL     1      35.836  47.772  49.282  0.00  0.00    +0.000 OA
ATOM      2  N   UNL     1      35.234  49.977  49.267  0.00  0.00    +0.000 N 
ATOM      3  N   UNL     1      35.688  52.586  50.143  0.00  0.00    +0.000 N 
ATOM      4  N   UNL     1      36.085  52.075  52.223  0.00  0.00    +0.000 NA
ATOM      5  N   UNL     1      36.322  53.416  52.049  0.00  0.00    +0.000 NA
ATOM      6  C   UNL     1      35.411  50.128  50.743  0.00  0.00    +0.000 C 
ATOM      7  C   UNL     1      34.540  51.088  48.601  0.00  0.00    +0.000 C 
ATOM      8  C   UNL     1      35.724  51.572  51.065  0.00  0.00    +0.000 A 
ATOM      9  C   UNL     1      35.311  52.391  48.762  0.00  0.00    +0.000 C 
ATOM     10  C   UNL     1      35.449  48.752  48.649  0.00  0.00    +0.000 C 
ATOM     11  C   UNL     1      36.096  53.725  50.783  0.00  0.00    +0.000 A 
ENDROOT
BRANCH  11  15
ATOM     12  F   UNL     1      37.115  55.045  49.101  0.00  0.00    +0.000 F 
ATOM     13  F   UNL     1      35.069  55.521  49.650  0.00  0.00    +0.000 F 
ATOM     14  F   UNL     1      36.712  55.998  51.010  0.00  0.00    +0.000 F 
ATOM     15  C   UNL     1      36.245  55.061  50.148  0.00  0.00    +0.000 C 
ENDBRANCH  11  15
BRANCH   6  16
ATOM     16  C   UNL     1      36.401  49.211  51.476  0.00  0.00    +0.000 C 
BRANCH  16  20
ATOM     17  F   UNL     1      36.661  47.599  53.231  0.00  0.00    +0.000 F 
ATOM     18  F   UNL     1      34.720  47.729  52.257  0.00  0.00    +0.000 F 
ATOM     19  F   UNL     1      35.363  49.310  53.593  0.00  0.00    +0.000 F 
ATOM     20  C   UNL     1      35.797  48.453  52.640  0.00  0.00    +0.000 C 
ENDBRANCH  16  20
ENDBRANCH   6  16
BRANCH  10  21
ATOM     21  C   UNL     1      35.250  48.660  47.145  0.00  0.00    +0.000 C 
BRANCH  21  22
ATOM     22  C   UNL     1      36.583  48.775  46.384  0.00  0.00    +0.000 C 
BRANCH  22  23
ATOM     23  N   UNL     1      37.612  48.026  47.129  0.00  0.00    +0.000 NA
ATOM     24  H   UNL     1      37.323  47.049  47.209  0.00  0.00    +0.000 HD
ATOM     25  H   UNL     1      37.661  48.371  48.088  0.00  0.00    +0.000 HD
ENDBRANCH  22  23
BRANCH  22  26
ATOM     26  C   UNL     1      36.996  50.261  46.225  0.00  0.00    +0.000 C 
BRANCH  26  30
ATOM     27  F   UNL     1      38.472  49.592  43.904  0.00  0.00    +0.000 F 
ATOM     28  F   UNL     1      34.539  53.310  43.289  0.00  0.00    +0.000 F 
ATOM     29  F   UNL     1      36.084  52.568  41.157  0.00  0.00    +0.000 F 
ATOM     30  C   UNL     1      36.712  50.860  44.868  0.00  0.00    +0.000 A 
ATOM     31  C   UNL     1      37.493  50.499  43.764  0.00  0.00    +0.000 A 
ATOM     32  C   UNL     1      35.712  51.829  44.699  0.00  0.00    +0.000 A 
ATOM     33  C   UNL     1      35.501  52.394  43.443  0.00  0.00    +0.000 A 
ATOM     34  C   UNL     1      37.289  51.065  42.514  0.00  0.00    +0.000 A 
ATOM     35  C   UNL     1      36.286  52.013  42.360  0.00  0.00    +0.000 A 
ENDBRANCH  26  30
ENDBRANCH  22  26
ENDBRANCH  21  22
ENDBRANCH  10  21
TORSDOF 8
ENDMDL
MODEL 6
REMARK VINA RESULT:      -7.8     21.544     23.478
REMARK  Name = 24776584
REMARK  8 active torsions:
REMARK  status: ('A' for Active; 'I' for Inactive)
REMARK    1  A    between atoms: N_15  and  C_24
REMARK    2  A    between atoms: C_16  and  C_20
REMARK    3  A    between atoms: C_20  and  C_25
REMARK    4  A    between atoms: C_21  and  C_22
REMARK    5  A    between atoms: C_22  and  C_24
REMARK    6  A    between atoms: C_23  and  C_27
REMARK    7  A    between atoms: C_24  and  C_26
REMARK    8  A    between atoms: C_26  and  C_28
REMARK                            x       y       z     vdW  Elec       q    Type
REMARK                         _______ _______ _______ _____ _____    ______ ____
ROOT
ATOM      1  O   UNL     1      49.286  49.105  40.545  0.00  0.00    +0.000 OA
ATOM      2  N   UNL     1      50.746  50.271  41.862  0.00  0.00    +0.000 N 
ATOM      3  N   UNL     1      52.503  50.313  44.028  0.00  0.00    +0.000 N 
ATOM      4  N   UNL     1      51.241  49.164  45.382  0.00  0.00    +0.000 NA
ATOM      5  N   UNL     1      52.455  49.376  45.988  0.00  0.00    +0.000 NA
ATOM      6  C   UNL     1      50.204  49.694  43.129  0.00  0.00    +0.000 C 
ATOM      7  C   UNL     1      51.649  51.418  42.030  0.00  0.00    +0.000 C 
ATOM      8  C   UNL     1      51.281  49.711  44.189  0.00  0.00    +0.000 A 
ATOM      9  C   UNL     1      52.883  51.030  42.833  0.00  0.00    +0.000 C 
ATOM     10  C   UNL     1      50.196  49.927  40.634  0.00  0.00    +0.000 C 
ATOM     11  C   UNL     1      53.227  50.061  45.161  0.00  0.00    +0.000 A 
ENDROOT
BRANCH  11  15
ATOM     12  F   UNL     1      54.714  51.806  45.758  0.00  0.00    +0.000 F 
ATOM     13  F   UNL     1      55.217  49.793  46.401  0.00  0.00    +0.000 F 
ATOM     14  F   UNL     1      55.410  50.357  44.298  0.00  0.00    +0.000 F 
ATOM     15  C   UNL     1      54.629  50.495  45.399  0.00  0.00    +0.000 C 
ENDBRANCH  11  15
BRANCH   6  16
ATOM     16  C   UNL     1      49.536  48.312  43.097  0.00  0.00    +0.000 C 
BRANCH  16  20
ATOM     17  F   UNL     1      48.062  49.099  44.816  0.00  0.00    +0.000 F 
ATOM     18  F   UNL     1      47.874  47.022  44.194  0.00  0.00    +0.000 F 
ATOM     19  F   UNL     1      47.205  48.607  42.875  0.00  0.00    +0.000 F 
ATOM     20  C   UNL     1      48.174  48.266  43.757  0.00  0.00    +0.000 C 
ENDBRANCH  16  20
ENDBRANCH   6  16
BRANCH  10  21
ATOM     21  C   UNL     1      50.789  50.549  39.380  0.00  0.00    +0.000 C 
BRANCH  21  22
ATOM     22  C   UNL     1      51.414  49.488  38.456  0.00  0.00    +0.000 C 
BRANCH  22  23
ATOM     23  N   UNL     1      52.050  48.455  39.295  0.00  0.00    +0.000 NA
ATOM     24  H   UNL     1      51.500  47.596  39.244  0.00  0.00    +0.000 HD
ATOM     25  H   UNL     1      52.014  48.738  40.276  0.00  0.00    +0.000 HD
ENDBRANCH  22  23
BRANCH  22  26
ATOM     26  C   UNL     1      52.454  50.136  37.505  0.00  0.00    +0.000 C 
BRANCH  26  30
ATOM     27  F   UNL     1      50.626  50.010  35.346  0.00  0.00    +0.000 F 
ATOM     28  F   UNL     1      55.246  47.178  34.784  0.00  0.00    +0.000 F 
ATOM     29  F   UNL     1      53.355  47.144  32.807  0.00  0.00    +0.000 F 
ATOM     30  C   UNL     1      52.728  49.361  36.238  0.00  0.00    +0.000 A 
ATOM     31  C   UNL     1      51.774  49.325  35.216  0.00  0.00    +0.000 A 
ATOM     32  C   UNL     1      53.907  48.615  36.087  0.00  0.00    +0.000 A 
ATOM     33  C   UNL     1      54.114  47.877  34.924  0.00  0.00    +0.000 A 
ATOM     34  C   UNL     1      51.975  48.585  34.059  0.00  0.00    +0.000 A 
ATOM     35  C   UNL     1      53.152  47.864  33.919  0.00  0.00    +0.000 A 
ENDBRANCH  26  30
ENDBRANCH  22  26
ENDBRANCH  21  22
ENDBRANCH  10  21
TORSDOF 8
ENDMDL
MODEL 7
REMARK VINA RESULT:      -7.4     20.748     23.096
REMARK  Name = 24776584
REMARK  8 active torsions:
REMARK  status: ('A' for Active; 'I' for Inactive)
REMARK    1  A    between atoms: N_15  and  C_24
REMARK    2  A    between atoms: C_16  and  C_20
REMARK    3  A    between atoms: C_20  and  C_25
REMARK    4  A    between atoms: C_21  and  C_22
REMARK    5  A    between atoms: C_22  and  C_24
REMARK    6  A    between atoms: C_23  and  C_27
REMARK    7  A    between atoms: C_24  and  C_26
REMARK    8  A    between atoms: C_26  and  C_28
REMARK                            x       y       z     vdW  Elec       q    Type
REMARK                         _______ _______ _______ _____ _____    ______ ____
ROOT
ATOM      1  O   UNL     1      50.033  51.374  39.780  0.00  0.00    +0.000 OA
ATOM      2  N   UNL     1      51.006  49.736  38.519  0.00  0.00    +0.000 N 
ATOM      3  N   UNL     1      51.760  48.778  36.011  0.00  0.00    +0.000 N 
ATOM      4  N   UNL     1      49.922  49.331  34.981  0.00  0.00    +0.000 NA
ATOM      5  N   UNL     1      50.818  48.857  34.054  0.00  0.00    +0.000 NA
ATOM      6  C   UNL     1      49.936  49.776  37.478  0.00  0.00    +0.000 C 
ATOM      7  C   UNL     1      51.922  48.589  38.435  0.00  0.00    +0.000 C 
ATOM      8  C   UNL     1      50.503  49.304  36.158  0.00  0.00    +0.000 A 
ATOM      9  C   UNL     1      52.675  48.586  37.112  0.00  0.00    +0.000 C 
ATOM     10  C   UNL     1      50.940  50.558  39.636  0.00  0.00    +0.000 C 
ATOM     11  C   UNL     1      51.939  48.535  34.675  0.00  0.00    +0.000 A 
ENDROOT
BRANCH  11  15
ATOM     12  F   UNL     1      53.043  47.766  32.725  0.00  0.00    +0.000 F 
ATOM     13  F   UNL     1      54.224  48.859  34.183  0.00  0.00    +0.000 F 
ATOM     14  F   UNL     1      53.566  46.818  34.607  0.00  0.00    +0.000 F 
ATOM     15  C   UNL     1      53.182  47.999  34.060  0.00  0.00    +0.000 C 
ENDBRANCH  11  15
BRANCH   6  16
ATOM     16  C   UNL     1      49.149  51.077  37.264  0.00  0.00    +0.000 C 
BRANCH  16  20
ATOM     17  F   UNL     1      47.025  50.812  36.182  0.00  0.00    +0.000 F 
ATOM     18  F   UNL     1      47.084  51.960  38.030  0.00  0.00    +0.000 F 
ATOM     19  F   UNL     1      47.339  49.808  38.090  0.00  0.00    +0.000 F 
ATOM     20  C   UNL     1      47.647  50.917  37.378  0.00  0.00    +0.000 C 
ENDBRANCH  16  20
ENDBRANCH   6  16
BRANCH  10  21
ATOM     21  C   UNL     1      52.057  50.469  40.663  0.00  0.00    +0.000 C 
BRANCH  21  22
ATOM     22  C   UNL     1      52.334  51.831  41.326  0.00  0.00    +0.000 C 
BRANCH  22  23
ATOM     23  N   UNL     1      52.355  52.866  40.275  0.00  0.00    +0.000 NA
ATOM     24  H   UNL     1      53.116  53.521  40.465  0.00  0.00    +0.000 HD
ATOM     25  H   UNL     1      51.502  53.424  40.326  0.00  0.00    +0.000 HD
ENDBRANCH  22  23
BRANCH  22  26
ATOM     26  C   UNL     1      53.682  51.803  42.093  0.00  0.00    +0.000 C 
BRANCH  26  30
ATOM     27  F   UNL     1      55.931  50.811  43.496  0.00  0.00    +0.000 F 
ATOM     28  F   UNL     1      51.156  50.609  46.110  0.00  0.00    +0.000 F 
ATOM     29  F   UNL     1      53.428  49.665  47.308  0.00  0.00    +0.000 F 
ATOM     30  C   UNL     1      53.602  51.270  43.503  0.00  0.00    +0.000 A 
ATOM     31  C   UNL     1      54.750  50.778  44.133  0.00  0.00    +0.000 A 
ATOM     32  C   UNL     1      52.376  51.199  44.182  0.00  0.00    +0.000 A 
ATOM     33  C   UNL     1      52.327  50.664  45.467  0.00  0.00    +0.000 A 
ATOM     34  C   UNL     1      54.702  50.238  45.411  0.00  0.00    +0.000 A 
ATOM     35  C   UNL     1      53.484  50.187  46.075  0.00  0.00    +0.000 A 
ENDBRANCH  26  30
ENDBRANCH  22  26
ENDBRANCH  21  22
ENDBRANCH  10  21
TORSDOF 8
ENDMDL
MODEL 8
REMARK VINA RESULT:      -7.3     26.247     28.642
REMARK  Name = 24776584
REMARK  8 active torsions:
REMARK  status: ('A' for Active; 'I' for Inactive)
REMARK    1  A    between atoms: N_15  and  C_24
REMARK    2  A    between atoms: C_16  and  C_20
REMARK    3  A    between atoms: C_20  and  C_25
REMARK    4  A    between atoms: C_21  and  C_22
REMARK    5  A    between atoms: C_22  and  C_24
REMARK    6  A    between atoms: C_23  and  C_27
REMARK    7  A    between atoms: C_24  and  C_26
REMARK    8  A    between atoms: C_26  and  C_28
REMARK                            x       y       z     vdW  Elec       q    Type
REMARK                         _______ _______ _______ _____ _____    ______ ____
ROOT
ATOM      1  O   UNL     1      34.568  54.262  46.128  0.00  0.00    +0.000 OA
ATOM      2  N   UNL     1      35.283  52.096  45.998  0.00  0.00    +0.000 N 
ATOM      3  N   UNL     1      37.165  50.248  45.090  0.00  0.00    +0.000 N 
ATOM      4  N   UNL     1      37.373  51.082  43.088  0.00  0.00    +0.000 NA
ATOM      5  N   UNL     1      38.296  50.076  43.242  0.00  0.00    +0.000 NA
ATOM      6  C   UNL     1      35.626  52.201  44.548  0.00  0.00    +0.000 C 
ATOM      7  C   UNL     1      35.267  50.730  46.542  0.00  0.00    +0.000 C 
ATOM      8  C   UNL     1      36.707  51.198  44.214  0.00  0.00    +0.000 A 
ATOM      9  C   UNL     1      36.638  50.079  46.425  0.00  0.00    +0.000 C 
ATOM     10  C   UNL     1      34.738  53.177  46.678  0.00  0.00    +0.000 C 
ATOM     11  C   UNL     1      38.181  49.580  44.462  0.00  0.00    +0.000 A 
ENDROOT
BRANCH  11  15
ATOM     12  F   UNL     1      38.223  47.471  45.540  0.00  0.00    +0.000 F 
ATOM     13  F   UNL     1      39.840  47.929  44.164  0.00  0.00    +0.000 F 
ATOM     14  F   UNL     1      39.740  48.915  46.112  0.00  0.00    +0.000 F 
ATOM     15  C   UNL     1      38.992  48.489  45.064  0.00  0.00    +0.000 C 
ENDBRANCH  11  15
BRANCH   6  16
ATOM     16  C   UNL     1      35.998  53.572  43.965  0.00  0.00    +0.000 C 
BRANCH  16  20
ATOM     17  F   UNL     1      34.245  53.070  42.408  0.00  0.00    +0.000 F 
ATOM     18  F   UNL     1      36.054  53.996  41.631  0.00  0.00    +0.000 F 
ATOM     19  F   UNL     1      34.676  55.163  42.830  0.00  0.00    +0.000 F 
ATOM     20  C   UNL     1      35.238  53.937  42.707  0.00  0.00    +0.000 C 
ENDBRANCH  16  20
ENDBRANCH   6  16
BRANCH  10  21
ATOM     21  C   UNL     1      34.407  53.007  48.152  0.00  0.00    +0.000 C 
BRANCH  21  22
ATOM     22  C   UNL     1      35.502  53.601  49.056  0.00  0.00    +0.000 C 
BRANCH  22  23
ATOM     23  N   UNL     1      36.134  54.728  48.346  0.00  0.00    +0.000 NA
ATOM     24  H   UNL     1      35.412  55.393  48.062  0.00  0.00    +0.000 HD
ATOM     25  H   UNL     1      36.550  54.395  47.474  0.00  0.00    +0.000 HD
ENDBRANCH  22  23
BRANCH  22  26
ATOM     26  C   UNL     1      36.556  52.523  49.419  0.00  0.00    +0.000 C 
BRANCH  26  30
ATOM     27  F   UNL     1      36.074  53.197  52.126  0.00  0.00    +0.000 F 
ATOM     28  F   UNL     1      35.419  47.961  50.775  0.00  0.00    +0.000 F 
ATOM     29  F   UNL     1      35.024  48.782  53.354  0.00  0.00    +0.000 F 
ATOM     30  C   UNL     1      36.109  51.515  50.451  0.00  0.00    +0.000 A 
ATOM     31  C   UNL     1      35.905  51.912  51.777  0.00  0.00    +0.000 A 
ATOM     32  C   UNL     1      35.951  50.161  50.119  0.00  0.00    +0.000 A 
ATOM     33  C   UNL     1      35.577  49.247  51.102  0.00  0.00    +0.000 A 
ATOM     34  C   UNL     1      35.540  51.002  52.759  0.00  0.00    +0.000 A 
ATOM     35  C   UNL     1      35.374  49.669  52.413  0.00  0.00    +0.000 A 
ENDBRANCH  26  30
ENDBRANCH  22  26
ENDBRANCH  21  22
ENDBRANCH  10  21
TORSDOF 8
ENDMDL
MODEL 9
REMARK VINA RESULT:      -7.1     23.639     26.088
REMARK  Name = 24776584
REMARK  8 active torsions:
REMARK  status: ('A' for Active; 'I' for Inactive)
REMARK    1  A    between atoms: N_15  and  C_24
REMARK    2  A    between atoms: C_16  and  C_20
REMARK    3  A    between atoms: C_20  and  C_25
REMARK    4  A    between atoms: C_21  and  C_22
REMARK    5  A    between atoms: C_22  and  C_24
REMARK    6  A    between atoms: C_23  and  C_27
REMARK    7  A    between atoms: C_24  and  C_26
REMARK    8  A    between atoms: C_26  and  C_28
REMARK                            x       y       z     vdW  Elec       q    Type
REMARK                         _______ _______ _______ _____ _____    ______ ____
ROOT
ATOM      1  O   UNL     1      43.770  50.871  37.570  0.00  0.00    +0.000 OA
ATOM      2  N   UNL     1      41.627  51.616  37.847  0.00  0.00    +0.000 N 
ATOM      3  N   UNL     1      38.919  51.399  37.217  0.00  0.00    +0.000 N 
ATOM      4  N   UNL     1      39.194  51.111  35.075  0.00  0.00    +0.000 NA
ATOM      5  N   UNL     1      37.862  50.953  35.371  0.00  0.00    +0.000 NA
ATOM      6  C   UNL     1      41.320  51.551  36.387  0.00  0.00    +0.000 C 
ATOM      7  C   UNL     1      40.641  52.336  38.665  0.00  0.00    +0.000 C 
ATOM      8  C   UNL     1      39.833  51.358  36.196  0.00  0.00    +0.000 A 
ATOM      9  C   UNL     1      39.276  51.667  38.591  0.00  0.00    +0.000 C 
ATOM     10  C   UNL     1      42.888  51.279  38.322  0.00  0.00    +0.000 C 
ATOM     11  C   UNL     1      37.696  51.112  36.673  0.00  0.00    +0.000 A 
ENDROOT
BRANCH  11  15
ATOM     12  F   UNL     1      36.536  50.227  38.540  0.00  0.00    +0.000 F 
ATOM     13  F   UNL     1      35.993  52.221  37.872  0.00  0.00    +0.000 F 
ATOM     14  F   UNL     1      35.419  50.471  36.694  0.00  0.00    +0.000 F 
ATOM     15  C   UNL     1      36.422  51.010  37.432  0.00  0.00    +0.000 C 
ENDBRANCH  11  15
BRANCH   6  16
ATOM     16  C   UNL     1      42.086  50.555  35.504  0.00  0.00    +0.000 C 
BRANCH  16  20
ATOM     17  F   UNL     1      42.761  50.522  33.204  0.00  0.00    +0.000 F 
ATOM     18  F   UNL     1      44.174  51.305  34.663  0.00  0.00    +0.000 F 
ATOM     19  F   UNL     1      42.412  52.455  34.144  0.00  0.00    +0.000 F 
ATOM     20  C   UNL     1      42.858  51.198  34.371  0.00  0.00    +0.000 C 
ENDBRANCH  16  20
ENDBRANCH   6  16
BRANCH  10  21
ATOM     21  C   UNL     1      43.141  51.368  39.818  0.00  0.00    +0.000 C 
BRANCH  21  22
ATOM     22  C   UNL     1      42.595  50.138  40.565  0.00  0.00    +0.000 C 
BRANCH  22  23
ATOM     23  N   UNL     1      42.672  50.400  42.015  0.00  0.00    +0.000 NA
ATOM     24  H   UNL     1      43.475  51.002  42.205  0.00  0.00    +0.000 HD
ATOM     25  H   UNL     1      42.865  49.530  42.512  0.00  0.00    +0.000 HD
ENDBRANCH  22  23
BRANCH  22  26
ATOM     26  C   UNL     1      43.405  48.869  40.196  0.00  0.00    +0.000 C 
BRANCH  26  30
ATOM     27  F   UNL     1      42.098  47.091  41.969  0.00  0.00    +0.000 F 
ATOM     28  F   UNL     1      47.348  48.117  42.995  0.00  0.00    +0.000 F 
ATOM     29  F   UNL     1      45.923  46.446  44.626  0.00  0.00    +0.000 F 
ATOM     30  C   UNL     1      44.105  48.199  41.354  0.00  0.00    +0.000 A 
ATOM     31  C   UNL     1      43.395  47.344  42.204  0.00  0.00    +0.000 A 
ATOM     32  C   UNL     1      45.453  48.466  41.638  0.00  0.00    +0.000 A 
ATOM     33  C   UNL     1      46.060  47.865  42.738  0.00  0.00    +0.000 A 
ATOM     34  C   UNL     1      43.996  46.749  43.304  0.00  0.00    +0.000 A 
ATOM     35  C   UNL     1      45.334  47.013  43.564  0.00  0.00    +0.000 A 
ENDBRANCH  26  30
ENDBRANCH  22  26
ENDBRANCH  21  22
ENDBRANCH  10  21
TORSDOF 8
ENDMDL
