MODEL 1
REMARK VINA RESULT:      -9.7      0.000      0.000
REMARK  Name = 24777183
REMARK  12 active torsions:
REMARK  status: ('A' for Active; 'I' for Inactive)
REMARK    1  A    between atoms: O_8  and  C_27
REMARK    2  A    between atoms: O_8  and  C_28
REMARK    3  A    between atoms: N_13  and  C_22
REMARK    4  A    between atoms: C_15  and  C_21
REMARK    5  A    between atoms: C_19  and  C_20
REMARK    6  A    between atoms: C_20  and  C_22
REMARK    7  A    between atoms: C_22  and  C_24
REMARK    8  A    between atoms: C_23  and  C_25
REMARK    9  A    between atoms: C_24  and  C_26
REMARK   10  A    between atoms: C_28  and  C_31
REMARK   11  A    between atoms: C_28  and  C_32
REMARK   12  A    between atoms: C_28  and  C_33
REMARK                            x       y       z     vdW  Elec       q    Type
REMARK                         _______ _______ _______ _____ _____    ______ ____
ROOT
ATOM      1  C   UNL     1      37.706  51.125  38.442  0.00  0.00    +0.000 C 
ENDROOT
BRANCH   1   3
ATOM      2  O   UNL     1      40.240  49.601  38.157  0.00  0.00    +0.000 OA
ATOM      3  N   UNL     1      39.081  51.577  38.198  0.00  0.00    +0.000 N 
ATOM      4  C   UNL     1      40.209  50.820  38.079  0.00  0.00    +0.000 C 
ATOM      5  H   UNL     1      39.224  52.556  37.983  0.00  0.00    +0.000 HD
BRANCH   4   6
ATOM      6  O   UNL     1      41.270  51.638  37.871  0.00  0.00    +0.000 OA
BRANCH   6   7
ATOM      7  C   UNL     1      41.940  51.755  36.581  0.00  0.00    +0.000 C 
ATOM      8  C   UNL     1      42.349  53.199  36.277  0.00  0.00    +0.000 C 
ATOM      9  C   UNL     1      43.227  50.912  36.709  0.00  0.00    +0.000 C 
ATOM     10  C   UNL     1      41.100  51.165  35.442  0.00  0.00    +0.000 C 
ENDBRANCH   6   7
ENDBRANCH   4   6
ENDBRANCH   1   3
BRANCH   1  11
ATOM     11  C   UNL     1      37.031  51.757  39.669  0.00  0.00    +0.000 C 
BRANCH  11  21
ATOM     12  O   UNL     1      38.492  50.484  41.095  0.00  0.00    +0.000 OA
ATOM     13  N   UNL     1      36.943  51.826  42.139  0.00  0.00    +0.000 N 
ATOM     14  N   UNL     1      35.529  52.473  44.483  0.00  0.00    +0.000 N 
ATOM     15  N   UNL     1      34.381  54.099  43.587  0.00  0.00    +0.000 NA
ATOM     16  N   UNL     1      34.056  54.018  44.916  0.00  0.00    +0.000 NA
ATOM     17  C   UNL     1      36.487  51.383  44.554  0.00  0.00    +0.000 C 
ATOM     18  C   UNL     1      37.541  51.544  43.447  0.00  0.00    +0.000 C 
ATOM     19  C   UNL     1      36.039  52.984  42.067  0.00  0.00    +0.000 C 
ATOM     20  C   UNL     1      35.293  53.188  43.337  0.00  0.00    +0.000 A 
ATOM     21  C   UNL     1      37.578  51.303  41.009  0.00  0.00    +0.000 C 
ATOM     22  C   UNL     1      35.797  50.018  44.477  0.00  0.00    +0.000 C 
ATOM     23  C   UNL     1      34.777  53.056  45.470  0.00  0.00    +0.000 A 
BRANCH  23  27
ATOM     24  F   UNL     1      34.404  51.418  47.149  0.00  0.00    +0.000 F 
ATOM     25  F   UNL     1      33.999  53.487  47.665  0.00  0.00    +0.000 F 
ATOM     26  F   UNL     1      36.057  52.795  47.432  0.00  0.00    +0.000 F 
ATOM     27  C   UNL     1      34.806  52.696  46.913  0.00  0.00    +0.000 C 
ENDBRANCH  23  27
ENDBRANCH  11  21
ENDBRANCH   1  11
BRANCH   1  28
ATOM     28  C   UNL     1      36.798  51.310  37.192  0.00  0.00    +0.000 C 
BRANCH  28  32
ATOM     29  F   UNL     1      38.063  49.146  35.828  0.00  0.00    +0.000 F 
ATOM     30  F   UNL     1      32.732  48.602  36.773  0.00  0.00    +0.000 F 
ATOM     31  F   UNL     1      34.114  46.607  35.505  0.00  0.00    +0.000 F 
ATOM     32  C   UNL     1      36.072  50.059  36.738  0.00  0.00    +0.000 A 
ATOM     33  C   UNL     1      36.751  49.024  36.073  0.00  0.00    +0.000 A 
ATOM     34  C   UNL     1      34.695  49.899  36.964  0.00  0.00    +0.000 A 
ATOM     35  C   UNL     1      34.044  48.734  36.542  0.00  0.00    +0.000 A 
ATOM     36  C   UNL     1      36.105  47.859  35.659  0.00  0.00    +0.000 A 
ATOM     37  C   UNL     1      34.748  47.717  35.904  0.00  0.00    +0.000 A 
ENDBRANCH  28  32
ENDBRANCH   1  28
TORSDOF 8
ENDMDL
MODEL 2
REMARK VINA RESULT:      -8.5      5.438      8.468
REMARK  Name = 24777183
REMARK  12 active torsions:
REMARK  status: ('A' for Active; 'I' for Inactive)
REMARK    1  A    between atoms: O_8  and  C_27
REMARK    2  A    between atoms: O_8  and  C_28
REMARK    3  A    between atoms: N_13  and  C_22
REMARK    4  A    between atoms: C_15  and  C_21
REMARK    5  A    between atoms: C_19  and  C_20
REMARK    6  A    between atoms: C_20  and  C_22
REMARK    7  A    between atoms: C_22  and  C_24
REMARK    8  A    between atoms: C_23  and  C_25
REMARK    9  A    between atoms: C_24  and  C_26
REMARK   10  A    between atoms: C_28  and  C_31
REMARK   11  A    between atoms: C_28  and  C_32
REMARK   12  A    between atoms: C_28  and  C_33
REMARK                            x       y       z     vdW  Elec       q    Type
REMARK                         _______ _______ _______ _____ _____    ______ ____
ROOT
ATOM      1  C   UNL     1      39.234  51.149  37.365  0.00  0.00    +0.000 C 
ENDROOT
BRANCH   1   3
ATOM      2  O   UNL     1      41.363  49.263  36.509  0.00  0.00    +0.000 OA
ATOM      3  N   UNL     1      39.866  50.026  38.067  0.00  0.00    +0.000 N 
ATOM      4  C   UNL     1      40.844  49.191  37.614  0.00  0.00    +0.000 C 
ATOM      5  H   UNL     1      39.644  49.897  39.047  0.00  0.00    +0.000 HD
BRANCH   4   6
ATOM      6  O   UNL     1      41.131  48.282  38.578  0.00  0.00    +0.000 OA
BRANCH   6   7
ATOM      7  C   UNL     1      42.190  48.477  39.562  0.00  0.00    +0.000 C 
ATOM      8  C   UNL     1      41.637  48.942  40.913  0.00  0.00    +0.000 C 
ATOM      9  C   UNL     1      42.827  47.086  39.761  0.00  0.00    +0.000 C 
ATOM     10  C   UNL     1      43.279  49.427  39.052  0.00  0.00    +0.000 C 
ENDBRANCH   6   7
ENDBRANCH   4   6
ENDBRANCH   1   3
BRANCH   1  11
ATOM     11  C   UNL     1      40.167  52.336  37.082  0.00  0.00    +0.000 C 
BRANCH  11  21
ATOM     12  O   UNL     1      40.526  53.056  39.350  0.00  0.00    +0.000 OA
ATOM     13  N   UNL     1      42.388  52.907  38.008  0.00  0.00    +0.000 N 
ATOM     14  N   UNL     1      45.080  53.591  37.565  0.00  0.00    +0.000 N 
ATOM     15  N   UNL     1      45.244  52.549  35.653  0.00  0.00    +0.000 NA
ATOM     16  N   UNL     1      46.466  53.088  35.961  0.00  0.00    +0.000 NA
ATOM     17  C   UNL     1      44.455  54.074  38.784  0.00  0.00    +0.000 C 
ATOM     18  C   UNL     1      43.266  53.172  39.151  0.00  0.00    +0.000 C 
ATOM     19  C   UNL     1      43.025  52.341  36.810  0.00  0.00    +0.000 C 
ATOM     20  C   UNL     1      44.420  52.826  36.637  0.00  0.00    +0.000 A 
ATOM     21  C   UNL     1      41.018  52.779  38.257  0.00  0.00    +0.000 C 
ATOM     22  C   UNL     1      44.029  55.540  38.659  0.00  0.00    +0.000 C 
ATOM     23  C   UNL     1      46.379  53.691  37.136  0.00  0.00    +0.000 A 
BRANCH  23  27
ATOM     24  F   UNL     1      47.656  53.808  39.134  0.00  0.00    +0.000 F 
ATOM     25  F   UNL     1      47.321  55.660  38.054  0.00  0.00    +0.000 F 
ATOM     26  F   UNL     1      48.687  54.155  37.256  0.00  0.00    +0.000 F 
ATOM     27  C   UNL     1      47.496  54.325  37.886  0.00  0.00    +0.000 C 
ENDBRANCH  23  27
ENDBRANCH  11  21
ENDBRANCH   1  11
BRANCH   1  28
ATOM     28  C   UNL     1      38.544  50.701  36.044  0.00  0.00    +0.000 C 
BRANCH  28  32
ATOM     29  F   UNL     1      36.342  52.163  37.120  0.00  0.00    +0.000 F 
ATOM     30  F   UNL     1      35.324  47.024  35.647  0.00  0.00    +0.000 F 
ATOM     31  F   UNL     1      33.318  48.585  36.668  0.00  0.00    +0.000 F 
ATOM     32  C   UNL     1      37.151  50.126  36.214  0.00  0.00    +0.000 A 
ATOM     33  C   UNL     1      36.105  50.898  36.748  0.00  0.00    +0.000 A 
ATOM     34  C   UNL     1      36.866  48.800  35.849  0.00  0.00    +0.000 A 
ATOM     35  C   UNL     1      35.573  48.289  36.009  0.00  0.00    +0.000 A 
ATOM     36  C   UNL     1      34.814  50.392  36.900  0.00  0.00    +0.000 A 
ATOM     37  C   UNL     1      34.552  49.085  36.520  0.00  0.00    +0.000 A 
ENDBRANCH  28  32
ENDBRANCH   1  28
TORSDOF 8
ENDMDL
MODEL 3
REMARK VINA RESULT:      -7.9      2.141      2.868
REMARK  Name = 24777183
REMARK  12 active torsions:
REMARK  status: ('A' for Active; 'I' for Inactive)
REMARK    1  A    between atoms: O_8  and  C_27
REMARK    2  A    between atoms: O_8  and  C_28
REMARK    3  A    between atoms: N_13  and  C_22
REMARK    4  A    between atoms: C_15  and  C_21
REMARK    5  A    between atoms: C_19  and  C_20
REMARK    6  A    between atoms: C_20  and  C_22
REMARK    7  A    between atoms: C_22  and  C_24
REMARK    8  A    between atoms: C_23  and  C_25
REMARK    9  A    between atoms: C_24  and  C_26
REMARK   10  A    between atoms: C_28  and  C_31
REMARK   11  A    between atoms: C_28  and  C_32
REMARK   12  A    between atoms: C_28  and  C_33
REMARK                            x       y       z     vdW  Elec       q    Type
REMARK                         _______ _______ _______ _____ _____    ______ ____
ROOT
ATOM      1  C   UNL     1      39.150  50.833  38.771  0.00  0.00    +0.000 C 
ENDROOT
BRANCH   1   3
ATOM      2  O   UNL     1      41.979  50.870  37.869  0.00  0.00    +0.000 OA
ATOM      3  N   UNL     1      40.210  49.824  38.881  0.00  0.00    +0.000 N 
ATOM      4  C   UNL     1      41.498  49.903  38.441  0.00  0.00    +0.000 C 
ATOM      5  H   UNL     1      40.022  49.001  39.441  0.00  0.00    +0.000 HD
BRANCH   4   6
ATOM      6  O   UNL     1      42.137  48.744  38.735  0.00  0.00    +0.000 OA
BRANCH   6   7
ATOM      7  C   UNL     1      42.834  48.521  39.997  0.00  0.00    +0.000 C 
ATOM      8  C   UNL     1      41.894  48.653  41.199  0.00  0.00    +0.000 C 
ATOM      9  C   UNL     1      43.331  47.061  39.939  0.00  0.00    +0.000 C 
ATOM     10  C   UNL     1      44.057  49.432  40.146  0.00  0.00    +0.000 C 
ENDBRANCH   6   7
ENDBRANCH   4   6
ENDBRANCH   1   3
BRANCH   1  11
ATOM     11  C   UNL     1      39.484  52.188  39.414  0.00  0.00    +0.000 C 
BRANCH  11  21
ATOM     12  O   UNL     1      40.998  51.904  41.262  0.00  0.00    +0.000 OA
ATOM     13  N   UNL     1      38.792  52.287  41.787  0.00  0.00    +0.000 N 
ATOM     14  N   UNL     1      36.735  52.191  43.703  0.00  0.00    +0.000 N 
ATOM     15  N   UNL     1      35.181  52.957  42.374  0.00  0.00    +0.000 NA
ATOM     16  N   UNL     1      34.636  52.767  43.617  0.00  0.00    +0.000 NA
ATOM     17  C   UNL     1      38.059  51.756  44.114  0.00  0.00    +0.000 C 
ATOM     18  C   UNL     1      39.122  52.400  43.210  0.00  0.00    +0.000 C 
ATOM     19  C   UNL     1      37.480  52.808  41.374  0.00  0.00    +0.000 C 
ATOM     20  C   UNL     1      36.454  52.641  42.438  0.00  0.00    +0.000 A 
ATOM     21  C   UNL     1      39.849  52.129  40.885  0.00  0.00    +0.000 C 
ATOM     22  C   UNL     1      38.178  50.229  44.118  0.00  0.00    +0.000 C 
ATOM     23  C   UNL     1      35.584  52.335  44.434  0.00  0.00    +0.000 A 
BRANCH  23  27
ATOM     24  F   UNL     1      34.321  52.650  46.420  0.00  0.00    +0.000 F 
ATOM     25  F   UNL     1      36.483  52.598  46.609  0.00  0.00    +0.000 F 
ATOM     26  F   UNL     1      35.373  50.766  46.180  0.00  0.00    +0.000 F 
ATOM     27  C   UNL     1      35.446  52.092  45.895  0.00  0.00    +0.000 C 
ENDBRANCH  23  27
ENDBRANCH  11  21
ENDBRANCH   1  11
BRANCH   1  28
ATOM     28  C   UNL     1      38.699  51.051  37.298  0.00  0.00    +0.000 C 
BRANCH  28  32
ATOM     29  F   UNL     1      36.208  52.236  38.029  0.00  0.00    +0.000 F 
ATOM     30  F   UNL     1      35.922  47.578  35.230  0.00  0.00    +0.000 F 
ATOM     31  F   UNL     1      33.629  48.871  35.985  0.00  0.00    +0.000 F 
ATOM     32  C   UNL     1      37.347  50.458  36.949  0.00  0.00    +0.000 A 
ATOM     33  C   UNL     1      36.154  51.091  37.335  0.00  0.00    +0.000 A 
ATOM     34  C   UNL     1      37.249  49.254  36.235  0.00  0.00    +0.000 A 
ATOM     35  C   UNL     1      35.992  48.725  35.918  0.00  0.00    +0.000 A 
ATOM     36  C   UNL     1      34.900  50.570  37.012  0.00  0.00    +0.000 A 
ATOM     37  C   UNL     1      34.826  49.387  36.295  0.00  0.00    +0.000 A 
ENDBRANCH  28  32
ENDBRANCH   1  28
TORSDOF 8
ENDMDL
MODEL 4
REMARK VINA RESULT:      -7.5      4.790      6.912
REMARK  Name = 24777183
REMARK  12 active torsions:
REMARK  status: ('A' for Active; 'I' for Inactive)
REMARK    1  A    between atoms: O_8  and  C_27
REMARK    2  A    between atoms: O_8  and  C_28
REMARK    3  A    between atoms: N_13  and  C_22
REMARK    4  A    between atoms: C_15  and  C_21
REMARK    5  A    between atoms: C_19  and  C_20
REMARK    6  A    between atoms: C_20  and  C_22
REMARK    7  A    between atoms: C_22  and  C_24
REMARK    8  A    between atoms: C_23  and  C_25
REMARK    9  A    between atoms: C_24  and  C_26
REMARK   10  A    between atoms: C_28  and  C_31
REMARK   11  A    between atoms: C_28  and  C_32
REMARK   12  A    between atoms: C_28  and  C_33
REMARK                            x       y       z     vdW  Elec       q    Type
REMARK                         _______ _______ _______ _____ _____    ______ ____
ROOT
ATOM      1  C   UNL     1      41.179  49.666  41.703  0.00  0.00    +0.000 C 
ENDROOT
BRANCH   1   3
ATOM      2  O   UNL     1      42.453  49.557  39.022  0.00  0.00    +0.000 OA
ATOM      3  N   UNL     1      40.595  49.686  40.357  0.00  0.00    +0.000 N 
ATOM      4  C   UNL     1      41.241  49.635  39.156  0.00  0.00    +0.000 C 
ATOM      5  H   UNL     1      39.587  49.623  40.279  0.00  0.00    +0.000 HD
BRANCH   4   6
ATOM      6  O   UNL     1      40.324  49.692  38.160  0.00  0.00    +0.000 OA
BRANCH   6   7
ATOM      7  C   UNL     1      40.309  50.750  37.155  0.00  0.00    +0.000 C 
ATOM      8  C   UNL     1      41.252  50.443  35.988  0.00  0.00    +0.000 C 
ATOM      9  C   UNL     1      38.867  50.778  36.609  0.00  0.00    +0.000 C 
ATOM     10  C   UNL     1      40.611  52.124  37.765  0.00  0.00    +0.000 C 
ENDBRANCH   6   7
ENDBRANCH   4   6
ENDBRANCH   1   3
BRANCH   1  11
ATOM     11  C   UNL     1      40.445  50.536  42.734  0.00  0.00    +0.000 C 
BRANCH  11  21
ATOM     12  O   UNL     1      38.278  50.780  41.716  0.00  0.00    +0.000 OA
ATOM     13  N   UNL     1      38.320  49.980  43.872  0.00  0.00    +0.000 N 
ATOM     14  N   UNL     1      36.930  49.468  46.263  0.00  0.00    +0.000 N 
ATOM     15  N   UNL     1      38.657  48.670  47.337  0.00  0.00    +0.000 NA
ATOM     16  N   UNL     1      37.559  48.588  48.154  0.00  0.00    +0.000 NA
ATOM     17  C   UNL     1      36.181  50.041  45.158  0.00  0.00    +0.000 C 
ATOM     18  C   UNL     1      36.881  49.712  43.830  0.00  0.00    +0.000 C 
ATOM     19  C   UNL     1      39.078  49.326  44.950  0.00  0.00    +0.000 C 
ATOM     20  C   UNL     1      38.267  49.171  46.187  0.00  0.00    +0.000 A 
ATOM     21  C   UNL     1      38.932  50.435  42.700  0.00  0.00    +0.000 C 
ATOM     22  C   UNL     1      35.984  51.549  45.330  0.00  0.00    +0.000 C 
ATOM     23  C   UNL     1      36.504  49.038  47.493  0.00  0.00    +0.000 A 
BRANCH  23  27
ATOM     24  F   UNL     1      34.288  48.219  47.249  0.00  0.00    +0.000 F 
ATOM     25  F   UNL     1      34.527  50.268  47.923  0.00  0.00    +0.000 F 
ATOM     26  F   UNL     1      35.004  48.609  49.260  0.00  0.00    +0.000 F 
ATOM     27  C   UNL     1      35.097  49.038  47.975  0.00  0.00    +0.000 C 
ENDBRANCH  23  27
ENDBRANCH  11  21
ENDBRANCH   1  11
BRANCH   1  28
ATOM     28  C   UNL     1      41.330  48.219  42.254  0.00  0.00    +0.000 C 
BRANCH  28  32
ATOM     29  F   UNL     1      42.375  47.645  44.847  0.00  0.00    +0.000 F 
ATOM     30  F   UNL     1      45.837  47.088  40.686  0.00  0.00    +0.000 F 
ATOM     31  F   UNL     1      46.660  46.546  43.241  0.00  0.00    +0.000 F 
ATOM     32  C   UNL     1      42.759  47.778  42.511  0.00  0.00    +0.000 A 
ATOM     33  C   UNL     1      43.214  47.507  43.812  0.00  0.00    +0.000 A 
ATOM     34  C   UNL     1      43.672  47.635  41.454  0.00  0.00    +0.000 A 
ATOM     35  C   UNL     1      44.985  47.223  41.710  0.00  0.00    +0.000 A 
ATOM     36  C   UNL     1      44.520  47.088  44.068  0.00  0.00    +0.000 A 
ATOM     37  C   UNL     1      45.401  46.940  43.008  0.00  0.00    +0.000 A 
ENDBRANCH  28  32
ENDBRANCH   1  28
TORSDOF 8
ENDMDL
MODEL 5
REMARK VINA RESULT:      -7.4      4.143      6.394
REMARK  Name = 24777183
REMARK  12 active torsions:
REMARK  status: ('A' for Active; 'I' for Inactive)
REMARK    1  A    between atoms: O_8  and  C_27
REMARK    2  A    between atoms: O_8  and  C_28
REMARK    3  A    between atoms: N_13  and  C_22
REMARK    4  A    between atoms: C_15  and  C_21
REMARK    5  A    between atoms: C_19  and  C_20
REMARK    6  A    between atoms: C_20  and  C_22
REMARK    7  A    between atoms: C_22  and  C_24
REMARK    8  A    between atoms: C_23  and  C_25
REMARK    9  A    between atoms: C_24  and  C_26
REMARK   10  A    between atoms: C_28  and  C_31
REMARK   11  A    between atoms: C_28  and  C_32
REMARK   12  A    between atoms: C_28  and  C_33
REMARK                            x       y       z     vdW  Elec       q    Type
REMARK                         _______ _______ _______ _____ _____    ______ ____
ROOT
ATOM      1  C   UNL     1      40.349  50.482  41.031  0.00  0.00    +0.000 C 
ENDROOT
BRANCH   1   3
ATOM      2  O   UNL     1      40.395  52.249  38.644  0.00  0.00    +0.000 OA
ATOM      3  N   UNL     1      39.566  50.447  39.790  0.00  0.00    +0.000 N 
ATOM      4  C   UNL     1      39.634  51.296  38.725  0.00  0.00    +0.000 C 
ATOM      5  H   UNL     1      38.969  49.644  39.632  0.00  0.00    +0.000 HD
BRANCH   4   6
ATOM      6  O   UNL     1      38.726  50.912  37.795  0.00  0.00    +0.000 OA
BRANCH   6   7
ATOM      7  C   UNL     1      39.094  50.208  36.571  0.00  0.00    +0.000 C 
ATOM      8  C   UNL     1      40.358  49.364  36.755  0.00  0.00    +0.000 C 
ATOM      9  C   UNL     1      37.919  49.251  36.279  0.00  0.00    +0.000 C 
ATOM     10  C   UNL     1      39.233  51.163  35.380  0.00  0.00    +0.000 C 
ENDBRANCH   6   7
ENDBRANCH   4   6
ENDBRANCH   1   3
BRANCH   1  11
ATOM     11  C   UNL     1      39.654  51.180  42.209  0.00  0.00    +0.000 C 
BRANCH  11  21
ATOM     12  O   UNL     1      37.372  51.317  41.459  0.00  0.00    +0.000 OA
ATOM     13  N   UNL     1      37.733  50.275  43.477  0.00  0.00    +0.000 N 
ATOM     14  N   UNL     1      36.679  49.340  45.911  0.00  0.00    +0.000 N 
ATOM     15  N   UNL     1      38.582  48.604  46.690  0.00  0.00    +0.000 NA
ATOM     16  N   UNL     1      37.597  48.311  47.598  0.00  0.00    +0.000 NA
ATOM     17  C   UNL     1      35.759  49.959  44.973  0.00  0.00    +0.000 C 
ATOM     18  C   UNL     1      36.328  49.866  43.548  0.00  0.00    +0.000 C 
ATOM     19  C   UNL     1      38.665  49.579  44.377  0.00  0.00    +0.000 C 
ATOM     20  C   UNL     1      38.020  49.195  45.660  0.00  0.00    +0.000 A 
ATOM     21  C   UNL     1      38.163  50.927  42.317  0.00  0.00    +0.000 C 
ATOM     22  C   UNL     1      35.447  51.408  45.358  0.00  0.00    +0.000 C 
ATOM     23  C   UNL     1      36.437  48.725  47.113  0.00  0.00    +0.000 A 
BRANCH  23  27
ATOM     24  F   UNL     1      35.170  47.969  48.974  0.00  0.00    +0.000 F 
ATOM     25  F   UNL     1      34.306  47.698  47.001  0.00  0.00    +0.000 F 
ATOM     26  F   UNL     1      34.430  49.693  47.882  0.00  0.00    +0.000 F 
ATOM     27  C   UNL     1      35.100  48.521  47.732  0.00  0.00    +0.000 C 
ENDBRANCH  23  27
ENDBRANCH  11  21
ENDBRANCH   1  11
BRANCH   1  28
ATOM     28  C   UNL     1      40.818  49.064  41.467  0.00  0.00    +0.000 C 
BRANCH  28  32
ATOM     29  F   UNL     1      42.475  49.332  39.159  0.00  0.00    +0.000 F 
ATOM     30  F   UNL     1      45.006  48.015  43.793  0.00  0.00    +0.000 F 
ATOM     31  F   UNL     1      46.445  48.346  41.486  0.00  0.00    +0.000 F 
ATOM     32  C   UNL     1      42.322  48.864  41.479  0.00  0.00    +0.000 A 
ATOM     33  C   UNL     1      43.085  49.013  40.309  0.00  0.00    +0.000 A 
ATOM     34  C   UNL     1      42.996  48.516  42.661  0.00  0.00    +0.000 A 
ATOM     35  C   UNL     1      44.384  48.341  42.653  0.00  0.00    +0.000 A 
ATOM     36  C   UNL     1      44.470  48.847  40.301  0.00  0.00    +0.000 A 
ATOM     37  C   UNL     1      45.117  48.517  41.482  0.00  0.00    +0.000 A 
ENDBRANCH  28  32
ENDBRANCH   1  28
TORSDOF 8
ENDMDL
MODEL 6
REMARK VINA RESULT:      -7.3     12.910     16.269
REMARK  Name = 24777183
REMARK  12 active torsions:
REMARK  status: ('A' for Active; 'I' for Inactive)
REMARK    1  A    between atoms: O_8  and  C_27
REMARK    2  A    between atoms: O_8  and  C_28
REMARK    3  A    between atoms: N_13  and  C_22
REMARK    4  A    between atoms: C_15  and  C_21
REMARK    5  A    between atoms: C_19  and  C_20
REMARK    6  A    between atoms: C_20  and  C_22
REMARK    7  A    between atoms: C_22  and  C_24
REMARK    8  A    between atoms: C_23  and  C_25
REMARK    9  A    between atoms: C_24  and  C_26
REMARK   10  A    between atoms: C_28  and  C_31
REMARK   11  A    between atoms: C_28  and  C_32
REMARK   12  A    between atoms: C_28  and  C_33
REMARK                            x       y       z     vdW  Elec       q    Type
REMARK                         _______ _______ _______ _____ _____    ______ ____
ROOT
ATOM      1  C   UNL     1      51.195  51.218  36.981  0.00  0.00    +0.000 C 
ENDROOT
BRANCH   1   3
ATOM      2  O   UNL     1      50.354  52.013  34.245  0.00  0.00    +0.000 OA
ATOM      3  N   UNL     1      49.896  51.121  36.305  0.00  0.00    +0.000 N 
ATOM      4  C   UNL     1      49.572  51.509  35.039  0.00  0.00    +0.000 C 
ATOM      5  H   UNL     1      49.157  50.611  36.775  0.00  0.00    +0.000 HD
BRANCH   4   6
ATOM      6  O   UNL     1      48.259  51.252  34.820  0.00  0.00    +0.000 OA
BRANCH   6   7
ATOM      7  C   UNL     1      47.256  52.303  34.691  0.00  0.00    +0.000 C 
ATOM      8  C   UNL     1      47.767  53.648  35.215  0.00  0.00    +0.000 C 
ATOM      9  C   UNL     1      47.003  52.446  33.176  0.00  0.00    +0.000 C 
ATOM     10  C   UNL     1      45.931  51.915  35.357  0.00  0.00    +0.000 C 
ENDBRANCH   6   7
ENDBRANCH   4   6
ENDBRANCH   1   3
BRANCH   1  11
ATOM     11  C   UNL     1      51.162  51.946  38.333  0.00  0.00    +0.000 C 
BRANCH  11  21
ATOM     12  O   UNL     1      49.541  50.622  39.518  0.00  0.00    +0.000 OA
ATOM     13  N   UNL     1      51.548  50.985  40.579  0.00  0.00    +0.000 N 
ATOM     14  N   UNL     1      53.031  50.966  42.969  0.00  0.00    +0.000 N 
ATOM     15  N   UNL     1      54.886  51.681  42.065  0.00  0.00    +0.000 NA
ATOM     16  N   UNL     1      55.114  51.439  43.396  0.00  0.00    +0.000 NA
ATOM     17  C   UNL     1      51.642  50.545  43.035  0.00  0.00    +0.000 C 
ATOM     18  C   UNL     1      51.179  50.059  41.653  0.00  0.00    +0.000 C 
ATOM     19  C   UNL     1      52.973  51.336  40.476  0.00  0.00    +0.000 C 
ATOM     20  C   UNL     1      53.639  51.364  41.805  0.00  0.00    +0.000 A 
ATOM     21  C   UNL     1      50.668  51.113  39.500  0.00  0.00    +0.000 C 
ATOM     22  C   UNL     1      50.738  51.661  43.568  0.00  0.00    +0.000 C 
ATOM     23  C   UNL     1      54.001  50.972  43.938  0.00  0.00    +0.000 A 
BRANCH  23  27
ATOM     24  F   UNL     1      53.084  49.364  45.425  0.00  0.00    +0.000 F 
ATOM     25  F   UNL     1      53.231  51.409  46.134  0.00  0.00    +0.000 F 
ATOM     26  F   UNL     1      55.031  50.191  45.910  0.00  0.00    +0.000 F 
ATOM     27  C   UNL     1      53.837  50.493  45.337  0.00  0.00    +0.000 C 
ENDBRANCH  23  27
ENDBRANCH  11  21
ENDBRANCH   1  11
BRANCH   1  28
ATOM     28  C   UNL     1      51.871  49.827  37.153  0.00  0.00    +0.000 C 
BRANCH  28  32
ATOM     29  F   UNL     1      52.623  47.967  35.123  0.00  0.00    +0.000 F 
ATOM     30  F   UNL     1      56.558  51.253  36.946  0.00  0.00    +0.000 F 
ATOM     31  F   UNL     1      57.094  49.429  34.975  0.00  0.00    +0.000 F 
ATOM     32  C   UNL     1      53.272  49.722  36.580  0.00  0.00    +0.000 A 
ATOM     33  C   UNL     1      53.580  48.786  35.578  0.00  0.00    +0.000 A 
ATOM     34  C   UNL     1      54.305  50.554  37.040  0.00  0.00    +0.000 A 
ATOM     35  C   UNL     1      55.590  50.445  36.496  0.00  0.00    +0.000 A 
ATOM     36  C   UNL     1      54.858  48.683  35.029  0.00  0.00    +0.000 A 
ATOM     37  C   UNL     1      55.860  49.523  35.488  0.00  0.00    +0.000 A 
ENDBRANCH  28  32
ENDBRANCH   1  28
TORSDOF 8
ENDMDL
MODEL 7
REMARK VINA RESULT:      -7.2      4.140      6.229
REMARK  Name = 24777183
REMARK  12 active torsions:
REMARK  status: ('A' for Active; 'I' for Inactive)
REMARK    1  A    between atoms: O_8  and  C_27
REMARK    2  A    between atoms: O_8  and  C_28
REMARK    3  A    between atoms: N_13  and  C_22
REMARK    4  A    between atoms: C_15  and  C_21
REMARK    5  A    between atoms: C_19  and  C_20
REMARK    6  A    between atoms: C_20  and  C_22
REMARK    7  A    between atoms: C_22  and  C_24
REMARK    8  A    between atoms: C_23  and  C_25
REMARK    9  A    between atoms: C_24  and  C_26
REMARK   10  A    between atoms: C_28  and  C_31
REMARK   11  A    between atoms: C_28  and  C_32
REMARK   12  A    between atoms: C_28  and  C_33
REMARK                            x       y       z     vdW  Elec       q    Type
REMARK                         _______ _______ _______ _____ _____    ______ ____
ROOT
ATOM      1  C   UNL     1      37.904  51.795  42.510  0.00  0.00    +0.000 C 
ENDROOT
BRANCH   1   3
ATOM      2  O   UNL     1      37.258  50.570  39.882  0.00  0.00    +0.000 OA
ATOM      3  N   UNL     1      38.357  52.127  41.154  0.00  0.00    +0.000 N 
ATOM      4  C   UNL     1      38.022  51.519  39.980  0.00  0.00    +0.000 C 
ATOM      5  H   UNL     1      38.902  52.972  41.033  0.00  0.00    +0.000 HD
BRANCH   4   6
ATOM      6  O   UNL     1      38.675  52.133  38.963  0.00  0.00    +0.000 OA
BRANCH   6   7
ATOM      7  C   UNL     1      40.056  51.825  38.607  0.00  0.00    +0.000 C 
ATOM      8  C   UNL     1      40.493  50.458  39.142  0.00  0.00    +0.000 C 
ATOM      9  C   UNL     1      40.078  51.763  37.066  0.00  0.00    +0.000 C 
ATOM     10  C   UNL     1      41.022  52.929  39.050  0.00  0.00    +0.000 C 
ENDBRANCH   6   7
ENDBRANCH   4   6
ENDBRANCH   1   3
BRANCH   1  11
ATOM     11  C   UNL     1      36.379  51.699  42.672  0.00  0.00    +0.000 C 
BRANCH  11  21
ATOM     12  O   UNL     1      35.563  53.873  42.040  0.00  0.00    +0.000 OA
ATOM     13  N   UNL     1      35.212  53.234  44.221  0.00  0.00    +0.000 N 
ATOM     14  N   UNL     1      34.583  53.974  46.861  0.00  0.00    +0.000 N 
ATOM     15  N   UNL     1      34.733  51.955  47.681  0.00  0.00    +0.000 NA
ATOM     16  N   UNL     1      34.351  52.806  48.686  0.00  0.00    +0.000 NA
ATOM     17  C   UNL     1      34.618  55.024  45.858  0.00  0.00    +0.000 C 
ATOM     18  C   UNL     1      34.386  54.419  44.464  0.00  0.00    +0.000 C 
ATOM     19  C   UNL     1      35.102  52.145  45.204  0.00  0.00    +0.000 C 
ATOM     20  C   UNL     1      34.839  52.656  46.576  0.00  0.00    +0.000 A 
ATOM     21  C   UNL     1      35.675  53.020  42.920  0.00  0.00    +0.000 C 
ATOM     22  C   UNL     1      35.927  55.817  45.914  0.00  0.00    +0.000 C 
ATOM     23  C   UNL     1      34.226  54.025  48.184  0.00  0.00    +0.000 A 
BRANCH  23  27
ATOM     24  F   UNL     1      34.596  56.283  48.818  0.00  0.00    +0.000 F 
ATOM     25  F   UNL     1      33.561  55.005  50.234  0.00  0.00    +0.000 F 
ATOM     26  F   UNL     1      32.554  55.670  48.414  0.00  0.00    +0.000 F 
ATOM     27  C   UNL     1      33.740  55.230  48.908  0.00  0.00    +0.000 C 
ENDBRANCH  23  27
ENDBRANCH  11  21
ENDBRANCH   1  11
BRANCH   1  28
ATOM     28  C   UNL     1      38.569  50.495  43.048  0.00  0.00    +0.000 C 
BRANCH  28  32
ATOM     29  F   UNL     1      39.506  51.829  45.390  0.00  0.00    +0.000 F 
ATOM     30  F   UNL     1      36.091  47.670  46.198  0.00  0.00    +0.000 F 
ATOM     31  F   UNL     1      37.063  49.085  48.332  0.00  0.00    +0.000 F 
ATOM     32  C   UNL     1      38.167  50.107  44.458  0.00  0.00    +0.000 A 
ATOM     33  C   UNL     1      38.660  50.806  45.573  0.00  0.00    +0.000 A 
ATOM     34  C   UNL     1      37.293  49.033  44.691  0.00  0.00    +0.000 A 
ATOM     35  C   UNL     1      36.930  48.694  46.000  0.00  0.00    +0.000 A 
ATOM     36  C   UNL     1      38.292  50.474  46.877  0.00  0.00    +0.000 A 
ATOM     37  C   UNL     1      37.418  49.418  47.084  0.00  0.00    +0.000 A 
ENDBRANCH  28  32
ENDBRANCH   1  28
TORSDOF 8
ENDMDL
MODEL 8
REMARK VINA RESULT:      -7.1     13.617     15.337
REMARK  Name = 24777183
REMARK  12 active torsions:
REMARK  status: ('A' for Active; 'I' for Inactive)
REMARK    1  A    between atoms: O_8  and  C_27
REMARK    2  A    between atoms: O_8  and  C_28
REMARK    3  A    between atoms: N_13  and  C_22
REMARK    4  A    between atoms: C_15  and  C_21
REMARK    5  A    between atoms: C_19  and  C_20
REMARK    6  A    between atoms: C_20  and  C_22
REMARK    7  A    between atoms: C_22  and  C_24
REMARK    8  A    between atoms: C_23  and  C_25
REMARK    9  A    between atoms: C_24  and  C_26
REMARK   10  A    between atoms: C_28  and  C_31
REMARK   11  A    between atoms: C_28  and  C_32
REMARK   12  A    between atoms: C_28  and  C_33
REMARK                            x       y       z     vdW  Elec       q    Type
REMARK                         _______ _______ _______ _____ _____    ______ ____
ROOT
ATOM      1  C   UNL     1      50.852  49.386  38.884  0.00  0.00    +0.000 C 
ENDROOT
BRANCH   1   3
ATOM      2  O   UNL     1      53.403  50.467  39.956  0.00  0.00    +0.000 OA
ATOM      3  N   UNL     1      51.635  50.568  38.503  0.00  0.00    +0.000 N 
ATOM      4  C   UNL     1      52.806  51.013  39.040  0.00  0.00    +0.000 C 
ATOM      5  H   UNL     1      51.350  51.074  37.673  0.00  0.00    +0.000 HD
BRANCH   4   6
ATOM      6  O   UNL     1      53.182  52.148  38.401  0.00  0.00    +0.000 OA
BRANCH   6   7
ATOM      7  C   UNL     1      54.099  52.153  37.267  0.00  0.00    +0.000 C 
ATOM      8  C   UNL     1      53.391  52.522  35.960  0.00  0.00    +0.000 C 
ATOM      9  C   UNL     1      55.131  53.258  37.578  0.00  0.00    +0.000 C 
ATOM     10  C   UNL     1      54.853  50.825  37.134  0.00  0.00    +0.000 C 
ENDBRANCH   6   7
ENDBRANCH   4   6
ENDBRANCH   1   3
BRANCH   1  11
ATOM     11  C   UNL     1      49.692  49.670  39.851  0.00  0.00    +0.000 C 
BRANCH  11  21
ATOM     12  O   UNL     1      49.519  52.053  40.137  0.00  0.00    +0.000 OA
ATOM     13  N   UNL     1      50.319  50.855  41.929  0.00  0.00    +0.000 N 
ATOM     14  N   UNL     1      51.689  50.850  44.386  0.00  0.00    +0.000 N 
ATOM     15  N   UNL     1      51.548  48.692  44.694  0.00  0.00    +0.000 NA
ATOM     16  N   UNL     1      52.174  49.248  45.781  0.00  0.00    +0.000 NA
ATOM     17  C   UNL     1      51.504  52.128  43.721  0.00  0.00    +0.000 C 
ATOM     18  C   UNL     1      50.296  52.052  42.774  0.00  0.00    +0.000 C 
ATOM     19  C   UNL     1      50.424  49.563  42.625  0.00  0.00    +0.000 C 
ATOM     20  C   UNL     1      51.228  49.664  43.871  0.00  0.00    +0.000 A 
ATOM     21  C   UNL     1      49.808  50.965  40.632  0.00  0.00    +0.000 C 
ATOM     22  C   UNL     1      52.769  52.569  42.980  0.00  0.00    +0.000 C 
ATOM     23  C   UNL     1      52.230  50.560  45.612  0.00  0.00    +0.000 A 
BRANCH  23  27
ATOM     24  F   UNL     1      51.792  52.439  46.996  0.00  0.00    +0.000 F 
ATOM     25  F   UNL     1      53.762  52.298  46.098  0.00  0.00    +0.000 F 
ATOM     26  F   UNL     1      53.198  50.954  47.725  0.00  0.00    +0.000 F 
ATOM     27  C   UNL     1      52.742  51.553  46.593  0.00  0.00    +0.000 C 
ENDBRANCH  23  27
ENDBRANCH  11  21
ENDBRANCH   1  11
BRANCH   1  28
ATOM     28  C   UNL     1      50.322  48.610  37.645  0.00  0.00    +0.000 C 
BRANCH  28  32
ATOM     29  F   UNL     1      48.861  50.331  35.899  0.00  0.00    +0.000 F 
ATOM     30  F   UNL     1      53.799  48.807  34.193  0.00  0.00    +0.000 F 
ATOM     31  F   UNL     1      52.271  50.484  32.659  0.00  0.00    +0.000 F 
ATOM     32  C   UNL     1      50.847  49.101  36.310  0.00  0.00    +0.000 A 
ATOM     33  C   UNL     1      50.081  49.951  35.494  0.00  0.00    +0.000 A 
ATOM     34  C   UNL     1      52.115  48.715  35.845  0.00  0.00    +0.000 A 
ATOM     35  C   UNL     1      52.584  49.184  34.613  0.00  0.00    +0.000 A 
ATOM     36  C   UNL     1      50.551  50.425  34.269  0.00  0.00    +0.000 A 
ATOM     37  C   UNL     1      51.811  50.042  33.836  0.00  0.00    +0.000 A 
ENDBRANCH  28  32
ENDBRANCH   1  28
TORSDOF 8
ENDMDL
MODEL 9
REMARK VINA RESULT:      -6.9     11.208     15.096
REMARK  Name = 24777183
REMARK  12 active torsions:
REMARK  status: ('A' for Active; 'I' for Inactive)
REMARK    1  A    between atoms: O_8  and  C_27
REMARK    2  A    between atoms: O_8  and  C_28
REMARK    3  A    between atoms: N_13  and  C_22
REMARK    4  A    between atoms: C_15  and  C_21
REMARK    5  A    between atoms: C_19  and  C_20
REMARK    6  A    between atoms: C_20  and  C_22
REMARK    7  A    between atoms: C_22  and  C_24
REMARK    8  A    between atoms: C_23  and  C_25
REMARK    9  A    between atoms: C_24  and  C_26
REMARK   10  A    between atoms: C_28  and  C_31
REMARK   11  A    between atoms: C_28  and  C_32
REMARK   12  A    between atoms: C_28  and  C_33
REMARK                            x       y       z     vdW  Elec       q    Type
REMARK                         _______ _______ _______ _____ _____    ______ ____
ROOT
ATOM      1  C   UNL     1      48.477  51.402  35.406  0.00  0.00    +0.000 C 
ENDROOT
BRANCH   1   3
ATOM      2  O   UNL     1      46.754  53.539  36.541  0.00  0.00    +0.000 OA
ATOM      3  N   UNL     1      47.057  51.708  35.198  0.00  0.00    +0.000 N 
ATOM      4  C   UNL     1      46.319  52.711  35.756  0.00  0.00    +0.000 C 
ATOM      5  H   UNL     1      46.565  51.194  34.477  0.00  0.00    +0.000 HD
BRANCH   4   6
ATOM      6  O   UNL     1      45.045  52.626  35.302  0.00  0.00    +0.000 OA
BRANCH   6   7
ATOM      7  C   UNL     1      43.961  52.044  36.087  0.00  0.00    +0.000 C 
ATOM      8  C   UNL     1      43.205  53.105  36.892  0.00  0.00    +0.000 C 
ATOM      9  C   UNL     1      42.983  51.443  35.056  0.00  0.00    +0.000 C 
ATOM     10  C   UNL     1      44.453  50.908  36.990  0.00  0.00    +0.000 C 
ENDBRANCH   6   7
ENDBRANCH   4   6
ENDBRANCH   1   3
BRANCH   1  11
ATOM     11  C   UNL     1      48.749  50.262  36.399  0.00  0.00    +0.000 C 
BRANCH  11  21
ATOM     12  O   UNL     1      47.632  50.860  38.444  0.00  0.00    +0.000 OA
ATOM     13  N   UNL     1      49.931  50.835  38.495  0.00  0.00    +0.000 N 
ATOM     14  N   UNL     1      52.306  51.610  39.787  0.00  0.00    +0.000 N 
ATOM     15  N   UNL     1      53.643  50.683  38.331  0.00  0.00    +0.000 NA
ATOM     16  N   UNL     1      54.402  51.235  39.331  0.00  0.00    +0.000 NA
ATOM     17  C   UNL     1      51.048  52.007  40.396  0.00  0.00    +0.000 C 
ATOM     18  C   UNL     1      49.928  51.056  39.943  0.00  0.00    +0.000 C 
ATOM     19  C   UNL     1      51.190  50.354  37.907  0.00  0.00    +0.000 C 
ATOM     20  C   UNL     1      52.379  50.883  38.626  0.00  0.00    +0.000 A 
ATOM     21  C   UNL     1      48.696  50.658  37.862  0.00  0.00    +0.000 C 
ATOM     22  C   UNL     1      50.703  53.466  40.084  0.00  0.00    +0.000 C 
ATOM     23  C   UNL     1      53.593  51.767  40.233  0.00  0.00    +0.000 A 
BRANCH  23  27
ATOM     24  F   UNL     1      53.652  53.698  41.614  0.00  0.00    +0.000 F 
ATOM     25  F   UNL     1      55.338  52.335  41.729  0.00  0.00    +0.000 F 
ATOM     26  F   UNL     1      53.408  51.770  42.582  0.00  0.00    +0.000 F 
ATOM     27  C   UNL     1      53.997  52.385  41.524  0.00  0.00    +0.000 C 
ENDBRANCH  23  27
ENDBRANCH  11  21
ENDBRANCH   1  11
BRANCH   1  28
ATOM     28  C   UNL     1      49.217  51.117  34.068  0.00  0.00    +0.000 C 
BRANCH  28  32
ATOM     29  F   UNL     1      51.403  52.863  34.630  0.00  0.00    +0.000 F 
ATOM     30  F   UNL     1      52.621  47.588  34.085  0.00  0.00    +0.000 F 
ATOM     31  F   UNL     1      54.592  49.402  34.660  0.00  0.00    +0.000 F 
ATOM     32  C   UNL     1      50.653  50.651  34.218  0.00  0.00    +0.000 A 
ATOM     33  C   UNL     1      51.687  51.560  34.499  0.00  0.00    +0.000 A 
ATOM     34  C   UNL     1      50.992  49.297  34.074  0.00  0.00    +0.000 A 
ATOM     35  C   UNL     1      52.322  48.886  34.221  0.00  0.00    +0.000 A 
ATOM     36  C   UNL     1      53.012  51.151  34.654  0.00  0.00    +0.000 A 
ATOM     37  C   UNL     1      53.322  49.807  34.521  0.00  0.00    +0.000 A 
ENDBRANCH  28  32
ENDBRANCH   1  28
TORSDOF 8
ENDMDL
