MODEL 1
REMARK VINA RESULT:      -8.7      0.000      0.000
REMARK  Name = 10238227
REMARK  8 active torsions:
REMARK  status: ('A' for Active; 'I' for Inactive)
REMARK    1  A    between atoms: N_12  and  C_21
REMARK    2  A    between atoms: C_13  and  C_17
REMARK    3  A    between atoms: C_17  and  C_22
REMARK    4  A    between atoms: C_18  and  C_19
REMARK    5  A    between atoms: C_19  and  C_21
REMARK    6  A    between atoms: C_20  and  C_24
REMARK    7  A    between atoms: C_21  and  C_23
REMARK    8  A    between atoms: C_23  and  C_25
REMARK                            x       y       z     vdW  Elec       q    Type
REMARK                         _______ _______ _______ _____ _____    ______ ____
ROOT
ATOM      1  O   UNL     1      54.418  71.351  36.797  0.00  0.00    +0.000 OA
ATOM      2  N   UNL     1      55.140  70.752  38.910  0.00  0.00    +0.000 N 
ATOM      3  N   UNL     1      56.707  71.462  41.097  0.00  0.00    +0.000 N 
ATOM      4  N   UNL     1      58.593  71.631  40.036  0.00  0.00    +0.000 NA
ATOM      5  N   UNL     1      58.784  72.060  41.325  0.00  0.00    +0.000 NA
ATOM      6  C   UNL     1      56.622  70.818  38.626  0.00  0.00    +0.000 C 
ATOM      7  C   UNL     1      54.818  70.187  40.230  0.00  0.00    +0.000 C 
ATOM      8  C   UNL     1      57.322  71.326  39.876  0.00  0.00    +0.000 A 
ATOM      9  C   UNL     1      55.334  71.092  41.342  0.00  0.00    +0.000 C 
ATOM     10  C   UNL     1      54.158  71.015  37.949  0.00  0.00    +0.000 C 
ATOM     11  C   UNL     1      57.632  71.975  41.968  0.00  0.00    +0.000 A 
ENDROOT
BRANCH  11  15
ATOM     12  F   UNL     1      57.467  71.299  44.230  0.00  0.00    +0.000 F 
ATOM     13  F   UNL     1      56.121  72.863  43.552  0.00  0.00    +0.000 F 
ATOM     14  F   UNL     1      58.247  73.289  43.830  0.00  0.00    +0.000 F 
ATOM     15  C   UNL     1      57.369  72.358  43.378  0.00  0.00    +0.000 C 
ENDBRANCH  11  15
BRANCH   6  16
ATOM     16  C   UNL     1      57.066  71.599  37.367  0.00  0.00    +0.000 C 
ATOM     17  C   UNL     1      57.875  70.800  36.347  0.00  0.00    +0.000 C 
ENDBRANCH   6  16
BRANCH  10  18
ATOM     18  C   UNL     1      52.696  70.887  38.387  0.00  0.00    +0.000 C 
BRANCH  18  19
ATOM     19  C   UNL     1      51.669  71.450  37.380  0.00  0.00    +0.000 C 
BRANCH  19  20
ATOM     20  N   UNL     1      51.857  72.908  37.233  0.00  0.00    +0.000 NA
ATOM     21  H   UNL     1      51.089  73.336  36.720  0.00  0.00    +0.000 HD
ATOM     22  H   UNL     1      52.717  73.122  36.731  0.00  0.00    +0.000 HD
ENDBRANCH  19  20
BRANCH  19  23
ATOM     23  C   UNL     1      50.179  71.136  37.686  0.00  0.00    +0.000 C 
BRANCH  23  27
ATOM     24  F   UNL     1      49.946  70.010  40.306  0.00  0.00    +0.000 F 
ATOM     25  F   UNL     1      47.996  75.049  39.631  0.00  0.00    +0.000 F 
ATOM     26  F   UNL     1      47.773  73.794  42.055  0.00  0.00    +0.000 F 
ATOM     27  C   UNL     1      49.576  71.865  38.868  0.00  0.00    +0.000 A 
ATOM     28  C   UNL     1      49.477  71.252  40.125  0.00  0.00    +0.000 A 
ATOM     29  C   UNL     1      49.093  73.173  38.720  0.00  0.00    +0.000 A 
ATOM     30  C   UNL     1      48.489  73.814  39.797  0.00  0.00    +0.000 A 
ATOM     31  C   UNL     1      48.881  71.897  41.207  0.00  0.00    +0.000 A 
ATOM     32  C   UNL     1      48.378  73.178  41.029  0.00  0.00    +0.000 A 
ENDBRANCH  23  27
ENDBRANCH  19  23
ENDBRANCH  18  19
ENDBRANCH  10  18
TORSDOF 7
ENDMDL
MODEL 2
REMARK VINA RESULT:      -8.2      1.491      2.116
REMARK  Name = 10238227
REMARK  8 active torsions:
REMARK  status: ('A' for Active; 'I' for Inactive)
REMARK    1  A    between atoms: N_12  and  C_21
REMARK    2  A    between atoms: C_13  and  C_17
REMARK    3  A    between atoms: C_17  and  C_22
REMARK    4  A    between atoms: C_18  and  C_19
REMARK    5  A    between atoms: C_19  and  C_21
REMARK    6  A    between atoms: C_20  and  C_24
REMARK    7  A    between atoms: C_21  and  C_23
REMARK    8  A    between atoms: C_23  and  C_25
REMARK                            x       y       z     vdW  Elec       q    Type
REMARK                         _______ _______ _______ _____ _____    ______ ____
ROOT
ATOM      1  O   UNL     1      54.033  71.498  36.570  0.00  0.00    +0.000 OA
ATOM      2  N   UNL     1      54.658  70.782  38.678  0.00  0.00    +0.000 N 
ATOM      3  N   UNL     1      56.270  71.270  40.892  0.00  0.00    +0.000 N 
ATOM      4  N   UNL     1      58.175  71.242  39.853  0.00  0.00    +0.000 NA
ATOM      5  N   UNL     1      58.399  71.623  41.152  0.00  0.00    +0.000 NA
ATOM      6  C   UNL     1      56.141  70.684  38.409  0.00  0.00    +0.000 C 
ATOM      7  C   UNL     1      54.258  70.234  39.984  0.00  0.00    +0.000 C 
ATOM      8  C   UNL     1      56.880  71.087  39.675  0.00  0.00    +0.000 A 
ATOM      9  C   UNL     1      54.861  71.054  41.117  0.00  0.00    +0.000 C 
ATOM     10  C   UNL     1      53.724  71.173  37.712  0.00  0.00    +0.000 C 
ATOM     11  C   UNL     1      57.238  71.659  41.782  0.00  0.00    +0.000 A 
ENDROOT
BRANCH  11  15
ATOM     12  F   UNL     1      58.057  72.722  43.732  0.00  0.00    +0.000 F 
ATOM     13  F   UNL     1      56.804  70.969  43.999  0.00  0.00    +0.000 F 
ATOM     14  F   UNL     1      55.924  72.856  43.335  0.00  0.00    +0.000 F 
ATOM     15  C   UNL     1      57.003  72.044  43.196  0.00  0.00    +0.000 C 
ENDBRANCH  11  15
BRANCH   6  16
ATOM     16  C   UNL     1      56.686  71.432  37.170  0.00  0.00    +0.000 C 
ATOM     17  C   UNL     1      57.533  70.594  36.214  0.00  0.00    +0.000 C 
ENDBRANCH   6  16
BRANCH  10  18
ATOM     18  C   UNL     1      52.252  71.204  38.134  0.00  0.00    +0.000 C 
BRANCH  18  19
ATOM     19  C   UNL     1      51.417  72.326  37.479  0.00  0.00    +0.000 C 
BRANCH  19  20
ATOM     20  N   UNL     1      52.266  73.512  37.244  0.00  0.00    +0.000 NA
ATOM     21  H   UNL     1      51.768  74.377  37.447  0.00  0.00    +0.000 HD
ATOM     22  H   UNL     1      52.577  73.559  36.275  0.00  0.00    +0.000 HD
ENDBRANCH  19  20
BRANCH  19  23
ATOM     23  C   UNL     1      50.126  72.740  38.239  0.00  0.00    +0.000 C 
BRANCH  23  27
ATOM     24  F   UNL     1      48.554  70.674  37.038  0.00  0.00    +0.000 F 
ATOM     25  F   UNL     1      48.946  70.599  42.468  0.00  0.00    +0.000 F 
ATOM     26  F   UNL     1      47.408  68.743  41.168  0.00  0.00    +0.000 F 
ATOM     27  C   UNL     1      49.436  71.642  39.020  0.00  0.00    +0.000 A 
ATOM     28  C   UNL     1      48.665  70.665  38.373  0.00  0.00    +0.000 A 
ATOM     29  C   UNL     1      49.547  71.591  40.416  0.00  0.00    +0.000 A 
ATOM     30  C   UNL     1      48.862  70.613  41.131  0.00  0.00    +0.000 A 
ATOM     31  C   UNL     1      47.988  69.679  39.086  0.00  0.00    +0.000 A 
ATOM     32  C   UNL     1      48.083  69.668  40.470  0.00  0.00    +0.000 A 
ENDBRANCH  23  27
ENDBRANCH  19  23
ENDBRANCH  18  19
ENDBRANCH  10  18
TORSDOF 7
ENDMDL
MODEL 3
REMARK VINA RESULT:      -7.5      4.125      7.361
REMARK  Name = 10238227
REMARK  8 active torsions:
REMARK  status: ('A' for Active; 'I' for Inactive)
REMARK    1  A    between atoms: N_12  and  C_21
REMARK    2  A    between atoms: C_13  and  C_17
REMARK    3  A    between atoms: C_17  and  C_22
REMARK    4  A    between atoms: C_18  and  C_19
REMARK    5  A    between atoms: C_19  and  C_21
REMARK    6  A    between atoms: C_20  and  C_24
REMARK    7  A    between atoms: C_21  and  C_23
REMARK    8  A    between atoms: C_23  and  C_25
REMARK                            x       y       z     vdW  Elec       q    Type
REMARK                         _______ _______ _______ _____ _____    ______ ____
ROOT
ATOM      1  O   UNL     1      56.682  69.185  37.300  0.00  0.00    +0.000 OA
ATOM      2  N   UNL     1      56.973  70.899  38.824  0.00  0.00    +0.000 N 
ATOM      3  N   UNL     1      56.597  71.736  41.451  0.00  0.00    +0.000 N 
ATOM      4  N   UNL     1      54.444  71.473  41.515  0.00  0.00    +0.000 NA
ATOM      5  N   UNL     1      54.875  71.799  42.775  0.00  0.00    +0.000 NA
ATOM      6  C   UNL     1      55.528  71.024  39.244  0.00  0.00    +0.000 C 
ATOM      7  C   UNL     1      57.836  71.963  39.363  0.00  0.00    +0.000 C 
ATOM      8  C   UNL     1      55.491  71.373  40.722  0.00  0.00    +0.000 A 
ATOM      9  C   UNL     1      57.916  71.870  40.882  0.00  0.00    +0.000 C 
ATOM     10  C   UNL     1      57.422  69.985  37.864  0.00  0.00    +0.000 C 
ATOM     11  C   UNL     1      56.189  71.941  42.744  0.00  0.00    +0.000 A 
ENDROOT
BRANCH  11  15
ATOM     12  F   UNL     1      56.379  72.586  45.013  0.00  0.00    +0.000 F 
ATOM     13  F   UNL     1      57.881  73.329  43.632  0.00  0.00    +0.000 F 
ATOM     14  F   UNL     1      57.881  71.225  44.225  0.00  0.00    +0.000 F 
ATOM     15  C   UNL     1      57.078  72.266  43.887  0.00  0.00    +0.000 C 
ENDBRANCH  11  15
BRANCH   6  16
ATOM     16  C   UNL     1      54.592  69.837  38.915  0.00  0.00    +0.000 C 
ATOM     17  C   UNL     1      53.368  70.177  38.068  0.00  0.00    +0.000 C 
ENDBRANCH   6  16
BRANCH  10  18
ATOM     18  C   UNL     1      58.917  69.995  37.534  0.00  0.00    +0.000 C 
BRANCH  18  19
ATOM     19  C   UNL     1      59.822  69.376  38.622  0.00  0.00    +0.000 C 
BRANCH  19  20
ATOM     20  N   UNL     1      61.243  69.587  38.275  0.00  0.00    +0.000 NA
ATOM     21  H   UNL     1      61.701  68.714  38.023  0.00  0.00    +0.000 HD
ATOM     22  H   UNL     1      61.759  69.990  39.055  0.00  0.00    +0.000 HD
ENDBRANCH  19  20
BRANCH  19  23
ATOM     23  C   UNL     1      59.570  67.876  38.938  0.00  0.00    +0.000 C 
BRANCH  23  27
ATOM     24  F   UNL     1      60.604  65.698  40.477  0.00  0.00    +0.000 F 
ATOM     25  F   UNL     1      56.789  68.772  42.853  0.00  0.00    +0.000 F 
ATOM     26  F   UNL     1      57.820  66.596  44.158  0.00  0.00    +0.000 F 
ATOM     27  C   UNL     1      59.135  67.561  40.354  0.00  0.00    +0.000 A 
ATOM     28  C   UNL     1      59.669  66.468  41.051  0.00  0.00    +0.000 A 
ATOM     29  C   UNL     1      58.174  68.357  40.992  0.00  0.00    +0.000 A 
ATOM     30  C   UNL     1      57.737  68.025  42.271  0.00  0.00    +0.000 A 
ATOM     31  C   UNL     1      59.241  66.141  42.335  0.00  0.00    +0.000 A 
ATOM     32  C   UNL     1      58.262  66.921  42.934  0.00  0.00    +0.000 A 
ENDBRANCH  23  27
ENDBRANCH  19  23
ENDBRANCH  18  19
ENDBRANCH  10  18
TORSDOF 7
ENDMDL
MODEL 4
REMARK VINA RESULT:      -7.1     25.626     28.268
REMARK  Name = 10238227
REMARK  8 active torsions:
REMARK  status: ('A' for Active; 'I' for Inactive)
REMARK    1  A    between atoms: N_12  and  C_21
REMARK    2  A    between atoms: C_13  and  C_17
REMARK    3  A    between atoms: C_17  and  C_22
REMARK    4  A    between atoms: C_18  and  C_19
REMARK    5  A    between atoms: C_19  and  C_21
REMARK    6  A    between atoms: C_20  and  C_24
REMARK    7  A    between atoms: C_21  and  C_23
REMARK    8  A    between atoms: C_23  and  C_25
REMARK                            x       y       z     vdW  Elec       q    Type
REMARK                         _______ _______ _______ _____ _____    ______ ____
ROOT
ATOM      1  O   UNL     1      38.998  47.894  44.848  0.00  0.00    +0.000 OA
ATOM      2  N   UNL     1      38.374  50.116  44.987  0.00  0.00    +0.000 N 
ATOM      3  N   UNL     1      37.281  52.290  43.639  0.00  0.00    +0.000 N 
ATOM      4  N   UNL     1      38.719  52.355  42.015  0.00  0.00    +0.000 NA
ATOM      5  N   UNL     1      37.729  53.265  41.749  0.00  0.00    +0.000 NA
ATOM      6  C   UNL     1      39.199  50.614  43.825  0.00  0.00    +0.000 C 
ATOM      7  C   UNL     1      37.743  51.193  45.767  0.00  0.00    +0.000 C 
ATOM      8  C   UNL     1      38.420  51.717  43.128  0.00  0.00    +0.000 A 
ATOM      9  C   UNL     1      36.719  51.938  44.921  0.00  0.00    +0.000 C 
ATOM     10  C   UNL     1      38.361  48.781  45.408  0.00  0.00    +0.000 C 
ATOM     11  C   UNL     1      36.841  53.214  42.727  0.00  0.00    +0.000 A 
ENDROOT
BRANCH  11  15
ATOM     12  F   UNL     1      35.539  54.734  43.991  0.00  0.00    +0.000 F 
ATOM     13  F   UNL     1      34.481  53.228  42.838  0.00  0.00    +0.000 F 
ATOM     14  F   UNL     1      35.458  54.900  41.824  0.00  0.00    +0.000 F 
ATOM     15  C   UNL     1      35.591  54.008  42.838  0.00  0.00    +0.000 C 
ENDBRANCH  11  15
BRANCH   6  16
ATOM     16  C   UNL     1      39.714  49.558  42.819  0.00  0.00    +0.000 C 
ATOM     17  C   UNL     1      41.210  49.608  42.519  0.00  0.00    +0.000 C 
ENDBRANCH   6  16
BRANCH  10  18
ATOM     18  C   UNL     1      37.486  48.436  46.616  0.00  0.00    +0.000 C 
BRANCH  18  19
ATOM     19  C   UNL     1      36.236  47.590  46.287  0.00  0.00    +0.000 C 
BRANCH  19  20
ATOM     20  N   UNL     1      35.688  47.992  44.975  0.00  0.00    +0.000 NA
ATOM     21  H   UNL     1      34.695  47.781  44.902  0.00  0.00    +0.000 HD
ATOM     22  H   UNL     1      36.160  47.509  44.212  0.00  0.00    +0.000 HD
ENDBRANCH  19  20
BRANCH  19  23
ATOM     23  C   UNL     1      35.110  47.601  47.358  0.00  0.00    +0.000 C 
BRANCH  23  27
ATOM     24  F   UNL     1      34.468  50.371  47.049  0.00  0.00    +0.000 F 
ATOM     25  F   UNL     1      36.392  48.838  51.906  0.00  0.00    +0.000 F 
ATOM     26  F   UNL     1      35.810  51.470  51.418  0.00  0.00    +0.000 F 
ATOM     27  C   UNL     1      35.254  48.629  48.460  0.00  0.00    +0.000 A 
ATOM     28  C   UNL     1      34.936  49.977  48.241  0.00  0.00    +0.000 A 
ATOM     29  C   UNL     1      35.722  48.249  49.725  0.00  0.00    +0.000 A 
ATOM     30  C   UNL     1      35.907  49.210  50.714  0.00  0.00    +0.000 A 
ATOM     31  C   UNL     1      35.110  50.939  49.233  0.00  0.00    +0.000 A 
ATOM     32  C   UNL     1      35.609  50.546  50.467  0.00  0.00    +0.000 A 
ENDBRANCH  23  27
ENDBRANCH  19  23
ENDBRANCH  18  19
ENDBRANCH  10  18
TORSDOF 7
ENDMDL
MODEL 5
REMARK VINA RESULT:      -7.1      2.105      2.260
REMARK  Name = 10238227
REMARK  8 active torsions:
REMARK  status: ('A' for Active; 'I' for Inactive)
REMARK    1  A    between atoms: N_12  and  C_21
REMARK    2  A    between atoms: C_13  and  C_17
REMARK    3  A    between atoms: C_17  and  C_22
REMARK    4  A    between atoms: C_18  and  C_19
REMARK    5  A    between atoms: C_19  and  C_21
REMARK    6  A    between atoms: C_20  and  C_24
REMARK    7  A    between atoms: C_21  and  C_23
REMARK    8  A    between atoms: C_23  and  C_25
REMARK                            x       y       z     vdW  Elec       q    Type
REMARK                         _______ _______ _______ _____ _____    ______ ____
ROOT
ATOM      1  O   UNL     1      55.052  69.939  37.058  0.00  0.00    +0.000 OA
ATOM      2  N   UNL     1      55.850  69.789  39.223  0.00  0.00    +0.000 N 
ATOM      3  N   UNL     1      57.107  71.127  41.313  0.00  0.00    +0.000 N 
ATOM      4  N   UNL     1      58.906  71.686  40.236  0.00  0.00    +0.000 NA
ATOM      5  N   UNL     1      58.939  72.286  41.469  0.00  0.00    +0.000 NA
ATOM      6  C   UNL     1      57.267  70.223  38.930  0.00  0.00    +0.000 C 
ATOM      7  C   UNL     1      55.656  69.303  40.598  0.00  0.00    +0.000 C 
ATOM      8  C   UNL     1      57.769  71.033  40.113  0.00  0.00    +0.000 A 
ATOM      9  C   UNL     1      55.878  70.428  41.601  0.00  0.00    +0.000 C 
ATOM     10  C   UNL     1      54.861  69.671  38.240  0.00  0.00    +0.000 C 
ATOM     11  C   UNL     1      57.835  71.963  42.120  0.00  0.00    +0.000 A 
ENDROOT
BRANCH  11  15
ATOM     12  F   UNL     1      57.508  71.404  44.396  0.00  0.00    +0.000 F 
ATOM     13  F   UNL     1      56.162  72.867  43.522  0.00  0.00    +0.000 F 
ATOM     14  F   UNL     1      58.239  73.401  43.947  0.00  0.00    +0.000 F 
ATOM     15  C   UNL     1      57.439  72.409  43.479  0.00  0.00    +0.000 C 
ENDBRANCH  11  15
BRANCH   6  16
ATOM     16  C   UNL     1      57.520  70.954  37.591  0.00  0.00    +0.000 C 
ATOM     17  C   UNL     1      58.630  70.371  36.720  0.00  0.00    +0.000 C 
ENDBRANCH   6  16
BRANCH  10  18
ATOM     18  C   UNL     1      53.476  69.200  38.694  0.00  0.00    +0.000 C 
BRANCH  18  19
ATOM     19  C   UNL     1      52.421  70.322  38.816  0.00  0.00    +0.000 C 
BRANCH  19  20
ATOM     20  N   UNL     1      52.951  71.575  38.242  0.00  0.00    +0.000 NA
ATOM     21  H   UNL     1      53.108  72.280  38.958  0.00  0.00    +0.000 HD
ATOM     22  H   UNL     1      52.307  71.972  37.558  0.00  0.00    +0.000 HD
ENDBRANCH  19  20
BRANCH  19  23
ATOM     23  C   UNL     1      51.875  70.583  40.247  0.00  0.00    +0.000 C 
BRANCH  23  27
ATOM     24  F   UNL     1      50.582  70.680  42.796  0.00  0.00    +0.000 F 
ATOM     25  F   UNL     1      47.491  69.266  38.543  0.00  0.00    +0.000 F 
ATOM     26  F   UNL     1      46.427  69.322  41.066  0.00  0.00    +0.000 F 
ATOM     27  C   UNL     1      50.405  70.291  40.459  0.00  0.00    +0.000 A 
ATOM     28  C   UNL     1      49.833  70.340  41.739  0.00  0.00    +0.000 A 
ATOM     29  C   UNL     1      49.587  69.951  39.373  0.00  0.00    +0.000 A 
ATOM     30  C   UNL     1      48.251  69.627  39.585  0.00  0.00    +0.000 A 
ATOM     31  C   UNL     1      48.493  70.026  41.952  0.00  0.00    +0.000 A 
ATOM     32  C   UNL     1      47.710  69.658  40.867  0.00  0.00    +0.000 A 
ENDBRANCH  23  27
ENDBRANCH  19  23
ENDBRANCH  18  19
ENDBRANCH  10  18
TORSDOF 7
ENDMDL
MODEL 6
REMARK VINA RESULT:      -7.0     20.920     22.722
REMARK  Name = 10238227
REMARK  8 active torsions:
REMARK  status: ('A' for Active; 'I' for Inactive)
REMARK    1  A    between atoms: N_12  and  C_21
REMARK    2  A    between atoms: C_13  and  C_17
REMARK    3  A    between atoms: C_17  and  C_22
REMARK    4  A    between atoms: C_18  and  C_19
REMARK    5  A    between atoms: C_19  and  C_21
REMARK    6  A    between atoms: C_20  and  C_24
REMARK    7  A    between atoms: C_21  and  C_23
REMARK    8  A    between atoms: C_23  and  C_25
REMARK                            x       y       z     vdW  Elec       q    Type
REMARK                         _______ _______ _______ _____ _____    ______ ____
ROOT
ATOM      1  O   UNL     1      49.572  50.422  40.035  0.00  0.00    +0.000 OA
ATOM      2  N   UNL     1      50.790  51.276  41.805  0.00  0.00    +0.000 N 
ATOM      3  N   UNL     1      52.371  50.678  44.015  0.00  0.00    +0.000 N 
ATOM      4  N   UNL     1      50.925  49.437  45.055  0.00  0.00    +0.000 NA
ATOM      5  N   UNL     1      52.114  49.377  45.737  0.00  0.00    +0.000 NA
ATOM      6  C   UNL     1      50.076  50.524  42.903  0.00  0.00    +0.000 C 
ATOM      7  C   UNL     1      51.731  52.292  42.303  0.00  0.00    +0.000 C 
ATOM      8  C   UNL     1      51.093  50.174  43.977  0.00  0.00    +0.000 A 
ATOM      9  C   UNL     1      52.877  51.635  43.062  0.00  0.00    +0.000 C 
ATOM     10  C   UNL     1      50.456  51.165  40.451  0.00  0.00    +0.000 C 
ATOM     11  C   UNL     1      53.001  50.118  45.096  0.00  0.00    +0.000 A 
ENDROOT
BRANCH  11  15
ATOM     12  F   UNL     1      54.674  51.590  45.892  0.00  0.00    +0.000 F 
ATOM     13  F   UNL     1      55.264  50.108  44.419  0.00  0.00    +0.000 F 
ATOM     14  F   UNL     1      54.817  49.499  46.470  0.00  0.00    +0.000 F 
ATOM     15  C   UNL     1      54.425  50.321  45.463  0.00  0.00    +0.000 C 
ENDBRANCH  11  15
BRANCH   6  16
ATOM     16  C   UNL     1      49.241  49.290  42.487  0.00  0.00    +0.000 C 
ATOM     17  C   UNL     1      47.815  49.246  43.030  0.00  0.00    +0.000 C 
ENDBRANCH   6  16
BRANCH  10  18
ATOM     18  C   UNL     1      51.262  52.009  39.459  0.00  0.00    +0.000 C 
BRANCH  18  19
ATOM     19  C   UNL     1      52.410  51.254  38.753  0.00  0.00    +0.000 C 
BRANCH  19  20
ATOM     20  N   UNL     1      53.712  51.706  39.285  0.00  0.00    +0.000 NA
ATOM     21  H   UNL     1      54.446  51.023  39.113  0.00  0.00    +0.000 HD
ATOM     22  H   UNL     1      53.667  51.862  40.291  0.00  0.00    +0.000 HD
ENDBRANCH  19  20
BRANCH  19  23
ATOM     23  C   UNL     1      52.416  51.331  37.201  0.00  0.00    +0.000 C 
BRANCH  23  27
ATOM     24  F   UNL     1      51.383  48.734  36.591  0.00  0.00    +0.000 F 
ATOM     25  F   UNL     1      56.533  49.720  35.124  0.00  0.00    +0.000 F 
ATOM     26  F   UNL     1      55.421  47.255  34.691  0.00  0.00    +0.000 F 
ATOM     27  C   UNL     1      53.206  50.254  36.487  0.00  0.00    +0.000 A 
ATOM     28  C   UNL     1      52.647  48.994  36.231  0.00  0.00    +0.000 A 
ATOM     29  C   UNL     1      54.524  50.498  36.078  0.00  0.00    +0.000 A 
ATOM     30  C   UNL     1      55.262  49.485  35.475  0.00  0.00    +0.000 A 
ATOM     31  C   UNL     1      53.381  47.981  35.617  0.00  0.00    +0.000 A 
ATOM     32  C   UNL     1      54.696  48.233  35.252  0.00  0.00    +0.000 A 
ENDBRANCH  23  27
ENDBRANCH  19  23
ENDBRANCH  18  19
ENDBRANCH  10  18
TORSDOF 7
ENDMDL
MODEL 7
REMARK VINA RESULT:      -6.9     23.031     25.298
REMARK  Name = 10238227
REMARK  8 active torsions:
REMARK  status: ('A' for Active; 'I' for Inactive)
REMARK    1  A    between atoms: N_12  and  C_21
REMARK    2  A    between atoms: C_13  and  C_17
REMARK    3  A    between atoms: C_17  and  C_22
REMARK    4  A    between atoms: C_18  and  C_19
REMARK    5  A    between atoms: C_19  and  C_21
REMARK    6  A    between atoms: C_20  and  C_24
REMARK    7  A    between atoms: C_21  and  C_23
REMARK    8  A    between atoms: C_23  and  C_25
REMARK                            x       y       z     vdW  Elec       q    Type
REMARK                         _______ _______ _______ _____ _____    ______ ____
ROOT
ATOM      1  O   UNL     1      42.824  49.058  42.159  0.00  0.00    +0.000 OA
ATOM      2  N   UNL     1      41.683  49.010  40.148  0.00  0.00    +0.000 N 
ATOM      3  N   UNL     1      40.823  50.485  37.952  0.00  0.00    +0.000 N 
ATOM      4  N   UNL     1      39.683  51.970  39.051  0.00  0.00    +0.000 NA
ATOM      5  N   UNL     1      39.712  52.340  37.730  0.00  0.00    +0.000 NA
ATOM      6  C   UNL     1      40.688  50.098  40.473  0.00  0.00    +0.000 C 
ATOM      7  C   UNL     1      41.398  48.308  38.887  0.00  0.00    +0.000 C 
ATOM      8  C   UNL     1      40.407  50.880  39.200  0.00  0.00    +0.000 A 
ATOM      9  C   UNL     1      41.536  49.255  37.702  0.00  0.00    +0.000 C 
ATOM     10  C   UNL     1      42.667  48.573  41.042  0.00  0.00    +0.000 C 
ATOM     11  C   UNL     1      40.421  51.447  37.061  0.00  0.00    +0.000 A 
ENDROOT
BRANCH  11  15
ATOM     12  F   UNL     1      41.954  50.919  35.337  0.00  0.00    +0.000 F 
ATOM     13  F   UNL     1      40.763  52.720  35.101  0.00  0.00    +0.000 F 
ATOM     14  F   UNL     1      39.834  50.754  34.883  0.00  0.00    +0.000 F 
ATOM     15  C   UNL     1      40.734  51.463  35.611  0.00  0.00    +0.000 C 
ENDBRANCH  11  15
BRANCH   6  16
ATOM     16  C   UNL     1      41.027  51.037  41.654  0.00  0.00    +0.000 C 
ATOM     17  C   UNL     1      39.962  51.137  42.744  0.00  0.00    +0.000 C 
ENDBRANCH   6  16
BRANCH  10  18
ATOM     18  C   UNL     1      43.590  47.445  40.571  0.00  0.00    +0.000 C 
BRANCH  18  19
ATOM     19  C   UNL     1      44.997  47.906  40.128  0.00  0.00    +0.000 C 
BRANCH  19  20
ATOM     20  N   UNL     1      46.027  47.230  40.942  0.00  0.00    +0.000 NA
ATOM     21  H   UNL     1      45.715  47.087  41.900  0.00  0.00    +0.000 HD
ATOM     22  H   UNL     1      46.888  47.774  40.978  0.00  0.00    +0.000 HD
ENDBRANCH  19  20
BRANCH  19  23
ATOM     23  C   UNL     1      45.238  49.441  40.133  0.00  0.00    +0.000 C 
BRANCH  23  27
ATOM     24  F   UNL     1      48.035  49.596  39.553  0.00  0.00    +0.000 F 
ATOM     25  F   UNL     1      44.648  51.639  35.811  0.00  0.00    +0.000 F 
ATOM     26  F   UNL     1      47.359  51.787  35.449  0.00  0.00    +0.000 F 
ATOM     27  C   UNL     1      45.804  50.027  38.858  0.00  0.00    +0.000 A 
ATOM     28  C   UNL     1      47.188  50.089  38.639  0.00  0.00    +0.000 A 
ATOM     29  C   UNL     1      44.948  50.534  37.871  0.00  0.00    +0.000 A 
ATOM     30  C   UNL     1      45.478  51.124  36.728  0.00  0.00    +0.000 A 
ATOM     31  C   UNL     1      47.721  50.669  37.491  0.00  0.00    +0.000 A 
ATOM     32  C   UNL     1      46.855  51.197  36.543  0.00  0.00    +0.000 A 
ENDBRANCH  23  27
ENDBRANCH  19  23
ENDBRANCH  18  19
ENDBRANCH  10  18
TORSDOF 7
ENDMDL
MODEL 8
REMARK VINA RESULT:      -6.5     20.842     22.736
REMARK  Name = 10238227
REMARK  8 active torsions:
REMARK  status: ('A' for Active; 'I' for Inactive)
REMARK    1  A    between atoms: N_12  and  C_21
REMARK    2  A    between atoms: C_13  and  C_17
REMARK    3  A    between atoms: C_17  and  C_22
REMARK    4  A    between atoms: C_18  and  C_19
REMARK    5  A    between atoms: C_19  and  C_21
REMARK    6  A    between atoms: C_20  and  C_24
REMARK    7  A    between atoms: C_21  and  C_23
REMARK    8  A    between atoms: C_23  and  C_25
REMARK                            x       y       z     vdW  Elec       q    Type
REMARK                         _______ _______ _______ _____ _____    ______ ____
ROOT
ATOM      1  O   UNL     1      49.178  51.715  38.306  0.00  0.00    +0.000 OA
ATOM      2  N   UNL     1      50.423  50.111  37.201  0.00  0.00    +0.000 N 
ATOM      3  N   UNL     1      52.787  49.562  35.840  0.00  0.00    +0.000 N 
ATOM      4  N   UNL     1      52.564  51.067  34.292  0.00  0.00    +0.000 NA
ATOM      5  N   UNL     1      53.804  50.496  34.162  0.00  0.00    +0.000 NA
ATOM      6  C   UNL     1      50.591  50.866  35.904  0.00  0.00    +0.000 C 
ATOM      7  C   UNL     1      50.903  48.721  37.140  0.00  0.00    +0.000 C 
ATOM      8  C   UNL     1      51.968  50.549  35.345  0.00  0.00    +0.000 A 
ATOM      9  C   UNL     1      52.410  48.684  36.921  0.00  0.00    +0.000 C 
ATOM     10  C   UNL     1      49.707  50.608  38.296  0.00  0.00    +0.000 C 
ATOM     11  C   UNL     1      53.950  49.592  35.115  0.00  0.00    +0.000 A 
ENDROOT
BRANCH  11  15
ATOM     12  F   UNL     1      56.278  49.279  34.829  0.00  0.00    +0.000 F 
ATOM     13  F   UNL     1      55.025  47.506  34.840  0.00  0.00    +0.000 F 
ATOM     14  F   UNL     1      55.395  48.600  36.696  0.00  0.00    +0.000 F 
ATOM     15  C   UNL     1      55.145  48.749  35.370  0.00  0.00    +0.000 C 
ENDBRANCH  11  15
BRANCH   6  16
ATOM     16  C   UNL     1      50.325  52.389  35.933  0.00  0.00    +0.000 C 
ATOM     17  C   UNL     1      49.265  52.893  34.957  0.00  0.00    +0.000 C 
ENDBRANCH   6  16
BRANCH  10  18
ATOM     18  C   UNL     1      49.611  49.713  39.535  0.00  0.00    +0.000 C 
BRANCH  18  19
ATOM     19  C   UNL     1      50.812  49.817  40.501  0.00  0.00    +0.000 C 
BRANCH  19  20
ATOM     20  N   UNL     1      51.296  48.466  40.849  0.00  0.00    +0.000 NA
ATOM     21  H   UNL     1      52.197  48.500  41.320  0.00  0.00    +0.000 HD
ATOM     22  H   UNL     1      51.406  47.886  40.019  0.00  0.00    +0.000 HD
ENDBRANCH  19  20
BRANCH  19  23
ATOM     23  C   UNL     1      50.569  50.644  41.794  0.00  0.00    +0.000 C 
BRANCH  23  27
ATOM     24  F   UNL     1      53.118  51.869  41.365  0.00  0.00    +0.000 F 
ATOM     25  F   UNL     1      52.412  49.301  46.114  0.00  0.00    +0.000 F 
ATOM     26  F   UNL     1      54.822  50.452  45.511  0.00  0.00    +0.000 F 
ATOM     27  C   UNL     1      51.693  50.632  42.809  0.00  0.00    +0.000 A 
ATOM     28  C   UNL     1      52.926  51.239  42.532  0.00  0.00    +0.000 A 
ATOM     29  C   UNL     1      51.521  49.999  44.047  0.00  0.00    +0.000 A 
ATOM     30  C   UNL     1      52.578  49.943  44.950  0.00  0.00    +0.000 A 
ATOM     31  C   UNL     1      53.983  51.193  43.439  0.00  0.00    +0.000 A 
ATOM     32  C   UNL     1      53.802  50.530  44.645  0.00  0.00    +0.000 A 
ENDBRANCH  23  27
ENDBRANCH  19  23
ENDBRANCH  18  19
ENDBRANCH  10  18
TORSDOF 7
ENDMDL
MODEL 9
REMARK VINA RESULT:      -6.3      3.118      4.085
REMARK  Name = 10238227
REMARK  8 active torsions:
REMARK  status: ('A' for Active; 'I' for Inactive)
REMARK    1  A    between atoms: N_12  and  C_21
REMARK    2  A    between atoms: C_13  and  C_17
REMARK    3  A    between atoms: C_17  and  C_22
REMARK    4  A    between atoms: C_18  and  C_19
REMARK    5  A    between atoms: C_19  and  C_21
REMARK    6  A    between atoms: C_20  and  C_24
REMARK    7  A    between atoms: C_21  and  C_23
REMARK    8  A    between atoms: C_23  and  C_25
REMARK                            x       y       z     vdW  Elec       q    Type
REMARK                         _______ _______ _______ _____ _____    ______ ____
ROOT
ATOM      1  O   UNL     1      52.248  67.605  41.802  0.00  0.00    +0.000 OA
ATOM      2  N   UNL     1      53.260  69.534  41.026  0.00  0.00    +0.000 N 
ATOM      3  N   UNL     1      55.667  70.868  40.615  0.00  0.00    +0.000 N 
ATOM      4  N   UNL     1      56.357  70.824  42.672  0.00  0.00    +0.000 NA
ATOM      5  N   UNL     1      57.363  71.333  41.891  0.00  0.00    +0.000 NA
ATOM      6  C   UNL     1      54.017  69.868  42.289  0.00  0.00    +0.000 C 
ATOM      7  C   UNL     1      53.322  70.592  40.005  0.00  0.00    +0.000 C 
ATOM      8  C   UNL     1      55.350  70.484  41.895  0.00  0.00    +0.000 A 
ATOM      9  C   UNL     1      54.749  70.772  39.505  0.00  0.00    +0.000 C 
ATOM     10  C   UNL     1      52.419  68.422  40.902  0.00  0.00    +0.000 C 
ATOM     11  C   UNL     1      56.952  71.343  40.635  0.00  0.00    +0.000 A 
ENDROOT
BRANCH  11  15
ATOM     12  F   UNL     1      57.898  70.787  38.537  0.00  0.00    +0.000 F 
ATOM     13  F   UNL     1      58.971  72.214  39.772  0.00  0.00    +0.000 F 
ATOM     14  F   UNL     1      57.111  72.799  38.784  0.00  0.00    +0.000 F 
ATOM     15  C   UNL     1      57.725  71.787  39.448  0.00  0.00    +0.000 C 
ENDBRANCH  11  15
BRANCH   6  16
ATOM     16  C   UNL     1      54.198  68.734  43.326  0.00  0.00    +0.000 C 
ATOM     17  C   UNL     1      55.379  67.799  43.081  0.00  0.00    +0.000 C 
ENDBRANCH   6  16
BRANCH  10  18
ATOM     18  C   UNL     1      51.704  68.231  39.561  0.00  0.00    +0.000 C 
BRANCH  18  19
ATOM     19  C   UNL     1      50.381  67.437  39.643  0.00  0.00    +0.000 C 
BRANCH  19  20
ATOM     20  N   UNL     1      50.064  66.852  38.324  0.00  0.00    +0.000 NA
ATOM     21  H   UNL     1      49.544  65.982  38.414  0.00  0.00    +0.000 HD
ATOM     22  H   UNL     1      50.910  66.650  37.794  0.00  0.00    +0.000 HD
ENDBRANCH  19  20
BRANCH  19  23
ATOM     23  C   UNL     1      49.155  68.222  40.185  0.00  0.00    +0.000 C 
BRANCH  23  27
ATOM     24  F   UNL     1      50.078  70.536  41.590  0.00  0.00    +0.000 F 
ATOM     25  F   UNL     1      47.539  71.408  36.854  0.00  0.00    +0.000 F 
ATOM     26  F   UNL     1      48.407  73.520  38.365  0.00  0.00    +0.000 F 
ATOM     27  C   UNL     1      48.996  69.638  39.675  0.00  0.00    +0.000 A 
ATOM     28  C   UNL     1      49.457  70.733  40.420  0.00  0.00    +0.000 A 
ATOM     29  C   UNL     1      48.368  69.881  38.446  0.00  0.00    +0.000 A 
ATOM     30  C   UNL     1      48.174  71.189  38.012  0.00  0.00    +0.000 A 
ATOM     31  C   UNL     1      49.273  72.043  39.983  0.00  0.00    +0.000 A 
ATOM     32  C   UNL     1      48.618  72.262  38.779  0.00  0.00    +0.000 A 
ENDBRANCH  23  27
ENDBRANCH  19  23
ENDBRANCH  18  19
ENDBRANCH  10  18
TORSDOF 7
ENDMDL
