MODEL 1
REMARK VINA RESULT:      -8.2      0.000      0.000
REMARK  Name = 24777442
REMARK  8 active torsions:
REMARK  status: ('A' for Active; 'I' for Inactive)
REMARK    1  A    between atoms: N_12  and  C_22
REMARK    2  A    between atoms: C_13  and  C_18
REMARK    3  A    between atoms: C_14  and  C_19
REMARK    4  A    between atoms: C_17  and  C_21
REMARK    5  A    between atoms: C_20  and  C_24
REMARK    6  A    between atoms: C_21  and  C_22
REMARK    7  A    between atoms: C_22  and  C_23
REMARK    8  A    between atoms: C_23  and  C_25
REMARK                            x       y       z     vdW  Elec       q    Type
REMARK                         _______ _______ _______ _____ _____    ______ ____
ROOT
ATOM      1  O   UNL     1      54.804  71.734  36.420  0.00  0.00    +0.000 OA
ATOM      2  N   UNL     1      55.653  70.329  38.013  0.00  0.00    +0.000 N 
ATOM      3  N   UNL     1      56.732  70.684  40.553  0.00  0.00    +0.000 N 
ATOM      4  N   UNL     1      58.427  71.908  39.927  0.00  0.00    +0.000 NA
ATOM      5  N   UNL     1      58.464  71.770  41.294  0.00  0.00    +0.000 NA
ATOM      6  C   UNL     1      55.532  69.869  40.423  0.00  0.00    +0.000 C 
ATOM      7  C   UNL     1      56.933  71.075  38.051  0.00  0.00    +0.000 C 
ATOM      8  C   UNL     1      55.504  69.264  39.011  0.00  0.00    +0.000 C 
ATOM      9  C   UNL     1      57.382  71.246  39.479  0.00  0.00    +0.000 A 
ATOM     10  C   UNL     1      54.644  70.769  37.159  0.00  0.00    +0.000 C 
ATOM     11  C   UNL     1      54.279  70.697  40.714  0.00  0.00    +0.000 C 
ATOM     12  C   UNL     1      57.994  70.350  37.223  0.00  0.00    +0.000 C 
ATOM     13  C   UNL     1      57.440  71.026  41.676  0.00  0.00    +0.000 A 
ENDROOT
BRANCH  13  17
ATOM     14  F   UNL     1      56.934  69.274  43.197  0.00  0.00    +0.000 F 
ATOM     15  F   UNL     1      55.950  71.182  43.510  0.00  0.00    +0.000 F 
ATOM     16  F   UNL     1      58.080  70.955  43.948  0.00  0.00    +0.000 F 
ATOM     17  C   UNL     1      57.103  70.619  43.067  0.00  0.00    +0.000 C 
ENDBRANCH  13  17
BRANCH  10  18
ATOM     18  C   UNL     1      53.325  70.006  37.203  0.00  0.00    +0.000 C 
BRANCH  18  19
ATOM     19  C   UNL     1      52.069  70.894  37.170  0.00  0.00    +0.000 C 
BRANCH  19  20
ATOM     20  N   UNL     1      52.403  72.161  37.859  0.00  0.00    +0.000 NA
ATOM     21  H   UNL     1      51.971  72.936  37.352  0.00  0.00    +0.000 HD
ATOM     22  H   UNL     1      53.406  72.333  37.801  0.00  0.00    +0.000 HD
ENDBRANCH  19  20
BRANCH  19  23
ATOM     23  C   UNL     1      50.861  70.206  37.855  0.00  0.00    +0.000 C 
BRANCH  23  27
ATOM     24  F   UNL     1      51.097  69.722  40.674  0.00  0.00    +0.000 F 
ATOM     25  F   UNL     1      47.951  73.904  39.161  0.00  0.00    +0.000 F 
ATOM     26  F   UNL     1      48.271  73.306  41.813  0.00  0.00    +0.000 F 
ATOM     27  C   UNL     1      50.153  71.016  38.921  0.00  0.00    +0.000 A 
ATOM     28  C   UNL     1      50.315  70.739  40.285  0.00  0.00    +0.000 A 
ATOM     29  C   UNL     1      49.347  72.104  38.551  0.00  0.00    +0.000 A 
ATOM     30  C   UNL     1      48.718  72.870  39.531  0.00  0.00    +0.000 A 
ATOM     31  C   UNL     1      49.682  71.500  41.265  0.00  0.00    +0.000 A 
ATOM     32  C   UNL     1      48.882  72.564  40.877  0.00  0.00    +0.000 A 
ENDBRANCH  23  27
ENDBRANCH  19  23
ENDBRANCH  18  19
ENDBRANCH  10  18
TORSDOF 6
ENDMDL
MODEL 2
REMARK VINA RESULT:      -7.7      1.702      2.343
REMARK  Name = 24777442
REMARK  8 active torsions:
REMARK  status: ('A' for Active; 'I' for Inactive)
REMARK    1  A    between atoms: N_12  and  C_22
REMARK    2  A    between atoms: C_13  and  C_18
REMARK    3  A    between atoms: C_14  and  C_19
REMARK    4  A    between atoms: C_17  and  C_21
REMARK    5  A    between atoms: C_20  and  C_24
REMARK    6  A    between atoms: C_21  and  C_22
REMARK    7  A    between atoms: C_22  and  C_23
REMARK    8  A    between atoms: C_23  and  C_25
REMARK                            x       y       z     vdW  Elec       q    Type
REMARK                         _______ _______ _______ _____ _____    ______ ____
ROOT
ATOM      1  O   UNL     1      52.503  71.526  38.268  0.00  0.00    +0.000 OA
ATOM      2  N   UNL     1      54.185  70.337  39.263  0.00  0.00    +0.000 N 
ATOM      3  N   UNL     1      56.550  71.016  40.564  0.00  0.00    +0.000 N 
ATOM      4  N   UNL     1      57.493  71.995  38.857  0.00  0.00    +0.000 NA
ATOM      5  N   UNL     1      58.341  72.077  39.935  0.00  0.00    +0.000 NA
ATOM      6  C   UNL     1      55.539  70.280  41.312  0.00  0.00    +0.000 C 
ATOM      7  C   UNL     1      55.208  70.984  38.407  0.00  0.00    +0.000 C 
ATOM      8  C   UNL     1      54.699  69.460  40.321  0.00  0.00    +0.000 C 
ATOM      9  C   UNL     1      56.412  71.349  39.237  0.00  0.00    +0.000 A 
ATOM     10  C   UNL     1      52.851  70.707  39.111  0.00  0.00    +0.000 C 
ATOM     11  C   UNL     1      54.675  71.234  42.139  0.00  0.00    +0.000 C 
ATOM     12  C   UNL     1      55.595  70.058  37.253  0.00  0.00    +0.000 C 
ATOM     13  C   UNL     1      57.773  71.481  40.971  0.00  0.00    +0.000 A 
ENDROOT
BRANCH  13  17
ATOM     14  F   UNL     1      59.666  71.660  42.394  0.00  0.00    +0.000 F 
ATOM     15  F   UNL     1      58.263  70.055  42.796  0.00  0.00    +0.000 F 
ATOM     16  F   UNL     1      57.724  72.126  43.242  0.00  0.00    +0.000 F 
ATOM     17  C   UNL     1      58.345  71.329  42.335  0.00  0.00    +0.000 C 
ENDBRANCH  13  17
BRANCH  10  18
ATOM     18  C   UNL     1      51.846  70.060  40.058  0.00  0.00    +0.000 C 
BRANCH  18  19
ATOM     19  C   UNL     1      50.965  68.976  39.414  0.00  0.00    +0.000 C 
BRANCH  19  20
ATOM     20  N   UNL     1      51.352  68.878  37.988  0.00  0.00    +0.000 NA
ATOM     21  H   UNL     1      50.575  68.473  37.462  0.00  0.00    +0.000 HD
ATOM     22  H   UNL     1      52.119  68.214  37.882  0.00  0.00    +0.000 HD
ENDBRANCH  19  20
BRANCH  19  23
ATOM     23  C   UNL     1      49.457  69.308  39.545  0.00  0.00    +0.000 C 
BRANCH  23  27
ATOM     24  F   UNL     1      49.175  70.962  37.217  0.00  0.00    +0.000 F 
ATOM     25  F   UNL     1      48.269  73.338  42.035  0.00  0.00    +0.000 F 
ATOM     26  F   UNL     1      48.051  74.783  39.720  0.00  0.00    +0.000 F 
ATOM     27  C   UNL     1      49.103  70.780  39.584  0.00  0.00    +0.000 A 
ATOM     28  C   UNL     1      48.970  71.536  38.410  0.00  0.00    +0.000 A 
ATOM     29  C   UNL     1      48.855  71.407  40.815  0.00  0.00    +0.000 A 
ATOM     30  C   UNL     1      48.501  72.755  40.851  0.00  0.00    +0.000 A 
ATOM     31  C   UNL     1      48.621  72.884  38.447  0.00  0.00    +0.000 A 
ATOM     32  C   UNL     1      48.391  73.486  39.675  0.00  0.00    +0.000 A 
ENDBRANCH  23  27
ENDBRANCH  19  23
ENDBRANCH  18  19
ENDBRANCH  10  18
TORSDOF 6
ENDMDL
MODEL 3
REMARK VINA RESULT:      -7.6     23.397     25.922
REMARK  Name = 24777442
REMARK  8 active torsions:
REMARK  status: ('A' for Active; 'I' for Inactive)
REMARK    1  A    between atoms: N_12  and  C_22
REMARK    2  A    between atoms: C_13  and  C_18
REMARK    3  A    between atoms: C_14  and  C_19
REMARK    4  A    between atoms: C_17  and  C_21
REMARK    5  A    between atoms: C_20  and  C_24
REMARK    6  A    between atoms: C_21  and  C_22
REMARK    7  A    between atoms: C_22  and  C_23
REMARK    8  A    between atoms: C_23  and  C_25
REMARK                            x       y       z     vdW  Elec       q    Type
REMARK                         _______ _______ _______ _____ _____    ______ ____
ROOT
ATOM      1  O   UNL     1      31.909  64.632  40.860  0.00  0.00    +0.000 OA
ATOM      2  N   UNL     1      30.186  65.624  39.729  0.00  0.00    +0.000 N 
ATOM      3  N   UNL     1      29.449  65.793  37.051  0.00  0.00    +0.000 N 
ATOM      4  N   UNL     1      31.239  66.844  36.374  0.00  0.00    +0.000 NA
ATOM      5  N   UNL     1      30.425  66.617  35.291  0.00  0.00    +0.000 NA
ATOM      6  C   UNL     1      28.523  65.162  37.981  0.00  0.00    +0.000 C 
ATOM      7  C   UNL     1      31.127  66.378  38.867  0.00  0.00    +0.000 C 
ATOM      8  C   UNL     1      28.765  65.744  39.382  0.00  0.00    +0.000 C 
ATOM      9  C   UNL     1      30.646  66.350  37.440  0.00  0.00    +0.000 A 
ATOM     10  C   UNL     1      30.701  64.758  40.691  0.00  0.00    +0.000 C 
ATOM     11  C   UNL     1      28.686  63.641  37.959  0.00  0.00    +0.000 C 
ATOM     12  C   UNL     1      31.273  67.813  39.372  0.00  0.00    +0.000 C 
ATOM     13  C   UNL     1      29.338  65.983  35.698  0.00  0.00    +0.000 A 
ENDROOT
BRANCH  13  17
ATOM     14  F   UNL     1      27.705  64.329  35.214  0.00  0.00    +0.000 F 
ATOM     15  F   UNL     1      28.516  65.451  33.543  0.00  0.00    +0.000 F 
ATOM     16  F   UNL     1      27.139  66.407  34.947  0.00  0.00    +0.000 F 
ATOM     17  C   UNL     1      28.190  65.552  34.857  0.00  0.00    +0.000 C 
ENDBRANCH  13  17
BRANCH  10  18
ATOM     18  C   UNL     1      29.693  63.959  41.509  0.00  0.00    +0.000 C 
BRANCH  18  19
ATOM     19  C   UNL     1      30.057  63.797  42.994  0.00  0.00    +0.000 C 
BRANCH  19  20
ATOM     20  N   UNL     1      29.923  62.361  43.330  0.00  0.00    +0.000 NA
ATOM     21  H   UNL     1      29.373  61.901  42.601  0.00  0.00    +0.000 HD
ATOM     22  H   UNL     1      29.375  62.253  44.183  0.00  0.00    +0.000 HD
ENDBRANCH  19  20
BRANCH  19  23
ATOM     23  C   UNL     1      29.144  64.654  43.907  0.00  0.00    +0.000 C 
BRANCH  23  27
ATOM     24  F   UNL     1      30.571  67.043  43.211  0.00  0.00    +0.000 F 
ATOM     25  F   UNL     1      25.261  66.921  42.001  0.00  0.00    +0.000 F 
ATOM     26  F   UNL     1      26.761  69.134  41.411  0.00  0.00    +0.000 F 
ATOM     27  C   UNL     1      28.509  65.866  43.259  0.00  0.00    +0.000 A 
ATOM     28  C   UNL     1      29.261  67.004  42.933  0.00  0.00    +0.000 A 
ATOM     29  C   UNL     1      27.145  65.850  42.930  0.00  0.00    +0.000 A 
ATOM     30  C   UNL     1      26.565  66.953  42.307  0.00  0.00    +0.000 A 
ATOM     31  C   UNL     1      28.681  68.109  42.315  0.00  0.00    +0.000 A 
ATOM     32  C   UNL     1      27.328  68.075  42.008  0.00  0.00    +0.000 A 
ENDBRANCH  23  27
ENDBRANCH  19  23
ENDBRANCH  18  19
ENDBRANCH  10  18
TORSDOF 6
ENDMDL
MODEL 4
REMARK VINA RESULT:      -7.6      2.445      7.466
REMARK  Name = 24777442
REMARK  8 active torsions:
REMARK  status: ('A' for Active; 'I' for Inactive)
REMARK    1  A    between atoms: N_12  and  C_22
REMARK    2  A    between atoms: C_13  and  C_18
REMARK    3  A    between atoms: C_14  and  C_19
REMARK    4  A    between atoms: C_17  and  C_21
REMARK    5  A    between atoms: C_20  and  C_24
REMARK    6  A    between atoms: C_21  and  C_22
REMARK    7  A    between atoms: C_22  and  C_23
REMARK    8  A    between atoms: C_23  and  C_25
REMARK                            x       y       z     vdW  Elec       q    Type
REMARK                         _______ _______ _______ _____ _____    ______ ____
ROOT
ATOM      1  O   UNL     1      57.512  68.365  39.328  0.00  0.00    +0.000 OA
ATOM      2  N   UNL     1      55.935  69.937  39.851  0.00  0.00    +0.000 N 
ATOM      3  N   UNL     1      53.640  70.892  38.600  0.00  0.00    +0.000 N 
ATOM      4  N   UNL     1      54.640  71.673  36.824  0.00  0.00    +0.000 NA
ATOM      5  N   UNL     1      53.289  71.888  36.698  0.00  0.00    +0.000 NA
ATOM      6  C   UNL     1      53.502  70.266  39.907  0.00  0.00    +0.000 C 
ATOM      7  C   UNL     1      56.170  70.660  38.578  0.00  0.00    +0.000 C 
ATOM      8  C   UNL     1      54.824  70.433  40.671  0.00  0.00    +0.000 C 
ATOM      9  C   UNL     1      54.853  71.076  37.976  0.00  0.00    +0.000 A 
ATOM     10  C   UNL     1      56.663  68.779  40.110  0.00  0.00    +0.000 C 
ATOM     11  C   UNL     1      53.106  68.795  39.765  0.00  0.00    +0.000 C 
ATOM     12  C   UNL     1      57.074  71.870  38.815  0.00  0.00    +0.000 C 
ATOM     13  C   UNL     1      52.681  71.418  37.775  0.00  0.00    +0.000 A 
ENDROOT
BRANCH  13  17
ATOM     14  F   UNL     1      50.616  72.577  37.587  0.00  0.00    +0.000 F 
ATOM     15  F   UNL     1      50.948  71.414  39.388  0.00  0.00    +0.000 F 
ATOM     16  F   UNL     1      50.564  70.411  37.484  0.00  0.00    +0.000 F 
ATOM     17  C   UNL     1      51.221  71.451  38.059  0.00  0.00    +0.000 C 
ENDBRANCH  13  17
BRANCH  10  18
ATOM     18  C   UNL     1      56.340  68.038  41.403  0.00  0.00    +0.000 C 
BRANCH  18  19
ATOM     19  C   UNL     1      57.319  68.308  42.559  0.00  0.00    +0.000 C 
BRANCH  19  20
ATOM     20  N   UNL     1      57.263  67.142  43.470  0.00  0.00    +0.000 NA
ATOM     21  H   UNL     1      58.028  66.506  43.239  0.00  0.00    +0.000 HD
ATOM     22  H   UNL     1      56.412  66.608  43.296  0.00  0.00    +0.000 HD
ENDBRANCH  19  20
BRANCH  19  23
ATOM     23  C   UNL     1      56.962  69.610  43.321  0.00  0.00    +0.000 C 
BRANCH  23  27
ATOM     24  F   UNL     1      56.603  72.195  44.513  0.00  0.00    +0.000 F 
ATOM     25  F   UNL     1      60.773  71.651  41.049  0.00  0.00    +0.000 F 
ATOM     26  F   UNL     1      60.290  74.057  42.262  0.00  0.00    +0.000 F 
ATOM     27  C   UNL     1      57.834  70.812  43.026  0.00  0.00    +0.000 A 
ATOM     28  C   UNL     1      57.615  72.049  43.648  0.00  0.00    +0.000 A 
ATOM     29  C   UNL     1      58.920  70.688  42.145  0.00  0.00    +0.000 A 
ATOM     30  C   UNL     1      59.741  71.786  41.894  0.00  0.00    +0.000 A 
ATOM     31  C   UNL     1      58.433  73.148  43.393  0.00  0.00    +0.000 A 
ATOM     32  C   UNL     1      59.494  73.006  42.511  0.00  0.00    +0.000 A 
ENDBRANCH  23  27
ENDBRANCH  19  23
ENDBRANCH  18  19
ENDBRANCH  10  18
TORSDOF 6
ENDMDL
MODEL 5
REMARK VINA RESULT:      -7.5     19.261     21.746
REMARK  Name = 24777442
REMARK  8 active torsions:
REMARK  status: ('A' for Active; 'I' for Inactive)
REMARK    1  A    between atoms: N_12  and  C_22
REMARK    2  A    between atoms: C_13  and  C_18
REMARK    3  A    between atoms: C_14  and  C_19
REMARK    4  A    between atoms: C_17  and  C_21
REMARK    5  A    between atoms: C_20  and  C_24
REMARK    6  A    between atoms: C_21  and  C_22
REMARK    7  A    between atoms: C_22  and  C_23
REMARK    8  A    between atoms: C_23  and  C_25
REMARK                            x       y       z     vdW  Elec       q    Type
REMARK                         _______ _______ _______ _____ _____    ______ ____
ROOT
ATOM      1  O   UNL     1      50.043  53.199  34.740  0.00  0.00    +0.000 OA
ATOM      2  N   UNL     1      48.513  52.241  36.144  0.00  0.00    +0.000 N 
ATOM      3  N   UNL     1      45.967  52.939  37.026  0.00  0.00    +0.000 N 
ATOM      4  N   UNL     1      46.556  54.790  38.021  0.00  0.00    +0.000 NA
ATOM      5  N   UNL     1      45.196  54.637  38.145  0.00  0.00    +0.000 NA
ATOM      6  C   UNL     1      46.122  51.694  36.287  0.00  0.00    +0.000 C 
ATOM      7  C   UNL     1      48.453  53.461  36.983  0.00  0.00    +0.000 C 
ATOM      8  C   UNL     1      47.557  51.182  36.487  0.00  0.00    +0.000 C 
ATOM      9  C   UNL     1      47.023  53.760  37.349  0.00  0.00    +0.000 A 
ATOM     10  C   UNL     1      49.341  52.235  35.024  0.00  0.00    +0.000 C 
ATOM     11  C   UNL     1      45.790  51.897  34.807  0.00  0.00    +0.000 C 
ATOM     12  C   UNL     1      49.316  53.286  38.233  0.00  0.00    +0.000 C 
ATOM     13  C   UNL     1      44.837  53.514  37.546  0.00  0.00    +0.000 A 
ENDROOT
BRANCH  13  17
ATOM     14  F   UNL     1      42.551  53.667  38.172  0.00  0.00    +0.000 F 
ATOM     15  F   UNL     1      43.382  51.681  37.902  0.00  0.00    +0.000 F 
ATOM     16  F   UNL     1      42.998  52.958  36.170  0.00  0.00    +0.000 F 
ATOM     17  C   UNL     1      43.461  52.957  37.447  0.00  0.00    +0.000 C 
ENDBRANCH  13  17
BRANCH  10  18
ATOM     18  C   UNL     1      49.319  50.980  34.159  0.00  0.00    +0.000 C 
BRANCH  18  19
ATOM     19  C   UNL     1      50.645  50.200  34.125  0.00  0.00    +0.000 C 
BRANCH  19  20
ATOM     20  N   UNL     1      50.413  48.963  33.346  0.00  0.00    +0.000 NA
ATOM     21  H   UNL     1      49.533  48.540  33.651  0.00  0.00    +0.000 HD
ATOM     22  H   UNL     1      51.130  48.273  33.569  0.00  0.00    +0.000 HD
ENDBRANCH  19  20
BRANCH  19  23
ATOM     23  C   UNL     1      51.146  49.857  35.551  0.00  0.00    +0.000 C 
BRANCH  23  27
ATOM     24  F   UNL     1      52.381  52.170  36.716  0.00  0.00    +0.000 F 
ATOM     25  F   UNL     1      55.679  48.047  35.370  0.00  0.00    +0.000 F 
ATOM     26  F   UNL     1      56.704  50.329  36.483  0.00  0.00    +0.000 F 
ATOM     27  C   UNL     1      52.636  50.001  35.783  0.00  0.00    +0.000 A 
ATOM     28  C   UNL     1      53.181  51.153  36.367  0.00  0.00    +0.000 A 
ATOM     29  C   UNL     1      53.500  48.946  35.453  0.00  0.00    +0.000 A 
ATOM     30  C   UNL     1      54.868  49.064  35.692  0.00  0.00    +0.000 A 
ATOM     31  C   UNL     1      54.549  51.274  36.601  0.00  0.00    +0.000 A 
ATOM     32  C   UNL     1      55.386  50.223  36.258  0.00  0.00    +0.000 A 
ENDBRANCH  23  27
ENDBRANCH  19  23
ENDBRANCH  18  19
ENDBRANCH  10  18
TORSDOF 6
ENDMDL
MODEL 6
REMARK VINA RESULT:      -7.0     24.902     27.226
REMARK  Name = 24777442
REMARK  8 active torsions:
REMARK  status: ('A' for Active; 'I' for Inactive)
REMARK    1  A    between atoms: N_12  and  C_22
REMARK    2  A    between atoms: C_13  and  C_18
REMARK    3  A    between atoms: C_14  and  C_19
REMARK    4  A    between atoms: C_17  and  C_21
REMARK    5  A    between atoms: C_20  and  C_24
REMARK    6  A    between atoms: C_21  and  C_22
REMARK    7  A    between atoms: C_22  and  C_23
REMARK    8  A    between atoms: C_23  and  C_25
REMARK                            x       y       z     vdW  Elec       q    Type
REMARK                         _______ _______ _______ _____ _____    ______ ____
ROOT
ATOM      1  O   UNL     1      36.299  54.266  43.568  0.00  0.00    +0.000 OA
ATOM      2  N   UNL     1      37.137  52.522  44.787  0.00  0.00    +0.000 N 
ATOM      3  N   UNL     1      36.017  50.320  46.067  0.00  0.00    +0.000 N 
ATOM      4  N   UNL     1      34.799  51.454  47.479  0.00  0.00    +0.000 NA
ATOM      5  N   UNL     1      34.578  50.114  47.684  0.00  0.00    +0.000 NA
ATOM      6  C   UNL     1      36.977  50.080  44.999  0.00  0.00    +0.000 C 
ATOM      7  C   UNL     1      36.257  52.845  45.936  0.00  0.00    +0.000 C 
ATOM      8  C   UNL     1      37.922  51.289  44.911  0.00  0.00    +0.000 C 
ATOM      9  C   UNL     1      35.674  51.578  46.505  0.00  0.00    +0.000 A 
ATOM     10  C   UNL     1      37.055  53.304  43.637  0.00  0.00    +0.000 C 
ATOM     11  C   UNL     1      36.259  49.820  43.673  0.00  0.00    +0.000 C 
ATOM     12  C   UNL     1      37.038  53.619  46.999  0.00  0.00    +0.000 C 
ATOM     13  C   UNL     1      35.317  49.423  46.832  0.00  0.00    +0.000 A 
ENDROOT
BRANCH  13  17
ATOM     14  F   UNL     1      34.957  47.487  45.506  0.00  0.00    +0.000 F 
ATOM     15  F   UNL     1      34.636  47.307  47.644  0.00  0.00    +0.000 F 
ATOM     16  F   UNL     1      36.663  47.483  46.845  0.00  0.00    +0.000 F 
ATOM     17  C   UNL     1      35.392  47.943  46.714  0.00  0.00    +0.000 C 
ENDBRANCH  13  17
BRANCH  10  18
ATOM     18  C   UNL     1      37.935  52.892  42.462  0.00  0.00    +0.000 C 
BRANCH  18  19
ATOM     19  C   UNL     1      37.164  52.517  41.184  0.00  0.00    +0.000 C 
BRANCH  19  20
ATOM     20  N   UNL     1      35.731  52.422  41.543  0.00  0.00    +0.000 NA
ATOM     21  H   UNL     1      35.197  53.052  40.941  0.00  0.00    +0.000 HD
ATOM     22  H   UNL     1      35.586  52.773  42.489  0.00  0.00    +0.000 HD
ENDBRANCH  19  20
BRANCH  19  23
ATOM     23  C   UNL     1      37.663  51.178  40.585  0.00  0.00    +0.000 C 
BRANCH  23  27
ATOM     24  F   UNL     1      35.767  51.229  38.432  0.00  0.00    +0.000 F 
ATOM     25  F   UNL     1      41.038  51.340  37.059  0.00  0.00    +0.000 F 
ATOM     26  F   UNL     1      39.106  51.373  35.120  0.00  0.00    +0.000 F 
ATOM     27  C   UNL     1      38.040  51.207  39.119  0.00  0.00    +0.000 A 
ATOM     28  C   UNL     1      37.068  51.241  38.109  0.00  0.00    +0.000 A 
ATOM     29  C   UNL     1      39.393  51.247  38.746  0.00  0.00    +0.000 A 
ATOM     30  C   UNL     1      39.742  51.303  37.398  0.00  0.00    +0.000 A 
ATOM     31  C   UNL     1      37.417  51.293  36.762  0.00  0.00    +0.000 A 
ATOM     32  C   UNL     1      38.760  51.321  36.415  0.00  0.00    +0.000 A 
ENDBRANCH  23  27
ENDBRANCH  19  23
ENDBRANCH  18  19
ENDBRANCH  10  18
TORSDOF 6
ENDMDL
MODEL 7
REMARK VINA RESULT:      -7.0      2.303      2.878
REMARK  Name = 24777442
REMARK  8 active torsions:
REMARK  status: ('A' for Active; 'I' for Inactive)
REMARK    1  A    between atoms: N_12  and  C_22
REMARK    2  A    between atoms: C_13  and  C_18
REMARK    3  A    between atoms: C_14  and  C_19
REMARK    4  A    between atoms: C_17  and  C_21
REMARK    5  A    between atoms: C_20  and  C_24
REMARK    6  A    between atoms: C_21  and  C_22
REMARK    7  A    between atoms: C_22  and  C_23
REMARK    8  A    between atoms: C_23  and  C_25
REMARK                            x       y       z     vdW  Elec       q    Type
REMARK                         _______ _______ _______ _____ _____    ______ ____
ROOT
ATOM      1  O   UNL     1      54.290  68.161  38.873  0.00  0.00    +0.000 OA
ATOM      2  N   UNL     1      55.226  68.476  40.936  0.00  0.00    +0.000 N 
ATOM      3  N   UNL     1      56.619  70.556  42.151  0.00  0.00    +0.000 N 
ATOM      4  N   UNL     1      58.306  70.559  40.766  0.00  0.00    +0.000 NA
ATOM      5  N   UNL     1      58.495  71.556  41.693  0.00  0.00    +0.000 NA
ATOM      6  C   UNL     1      55.361  70.129  42.748  0.00  0.00    +0.000 C 
ATOM      7  C   UNL     1      56.549  68.778  40.339  0.00  0.00    +0.000 C 
ATOM      8  C   UNL     1      55.126  68.654  42.389  0.00  0.00    +0.000 C 
ATOM      9  C   UNL     1      57.173  69.951  41.047  0.00  0.00    +0.000 A 
ATOM     10  C   UNL     1      54.155  68.196  40.091  0.00  0.00    +0.000 C 
ATOM     11  C   UNL     1      54.209  71.020  42.280  0.00  0.00    +0.000 C 
ATOM     12  C   UNL     1      57.453  67.547  40.407  0.00  0.00    +0.000 C 
ATOM     13  C   UNL     1      57.476  71.554  42.536  0.00  0.00    +0.000 A 
ENDROOT
BRANCH  13  17
ATOM     14  F   UNL     1      56.085  73.115  43.663  0.00  0.00    +0.000 F 
ATOM     15  F   UNL     1      58.230  73.427  43.772  0.00  0.00    +0.000 F 
ATOM     16  F   UNL     1      57.298  71.789  44.879  0.00  0.00    +0.000 F 
ATOM     17  C   UNL     1      57.280  72.460  43.699  0.00  0.00    +0.000 C 
ENDBRANCH  13  17
BRANCH  10  18
ATOM     18  C   UNL     1      52.802  67.954  40.752  0.00  0.00    +0.000 C 
BRANCH  18  19
ATOM     19  C   UNL     1      51.626  68.701  40.099  0.00  0.00    +0.000 C 
BRANCH  19  20
ATOM     20  N   UNL     1      51.222  67.930  38.901  0.00  0.00    +0.000 NA
ATOM     21  H   UNL     1      50.896  67.007  39.196  0.00  0.00    +0.000 HD
ATOM     22  H   UNL     1      52.037  67.748  38.315  0.00  0.00    +0.000 HD
ENDBRANCH  19  20
BRANCH  19  23
ATOM     23  C   UNL     1      52.013  70.149  39.707  0.00  0.00    +0.000 C 
BRANCH  23  27
ATOM     24  F   UNL     1      51.179  71.598  37.375  0.00  0.00    +0.000 F 
ATOM     25  F   UNL     1      48.391  72.527  41.962  0.00  0.00    +0.000 F 
ATOM     26  F   UNL     1      47.726  73.838  39.652  0.00  0.00    +0.000 F 
ATOM     27  C   UNL     1      50.881  71.156  39.689  0.00  0.00    +0.000 A 
ATOM     28  C   UNL     1      50.512  71.826  38.514  0.00  0.00    +0.000 A 
ATOM     29  C   UNL     1      50.144  71.400  40.858  0.00  0.00    +0.000 A 
ATOM     30  C   UNL     1      49.084  72.304  40.836  0.00  0.00    +0.000 A 
ATOM     31  C   UNL     1      49.456  72.734  38.493  0.00  0.00    +0.000 A 
ATOM     32  C   UNL     1      48.748  72.968  39.663  0.00  0.00    +0.000 A 
ENDBRANCH  23  27
ENDBRANCH  19  23
ENDBRANCH  18  19
ENDBRANCH  10  18
TORSDOF 6
ENDMDL
MODEL 8
REMARK VINA RESULT:      -6.9      2.347      7.101
REMARK  Name = 24777442
REMARK  8 active torsions:
REMARK  status: ('A' for Active; 'I' for Inactive)
REMARK    1  A    between atoms: N_12  and  C_22
REMARK    2  A    between atoms: C_13  and  C_18
REMARK    3  A    between atoms: C_14  and  C_19
REMARK    4  A    between atoms: C_17  and  C_21
REMARK    5  A    between atoms: C_20  and  C_24
REMARK    6  A    between atoms: C_21  and  C_22
REMARK    7  A    between atoms: C_22  and  C_23
REMARK    8  A    between atoms: C_23  and  C_25
REMARK                            x       y       z     vdW  Elec       q    Type
REMARK                         _______ _______ _______ _____ _____    ______ ____
ROOT
ATOM      1  O   UNL     1      56.463  68.378  38.597  0.00  0.00    +0.000 OA
ATOM      2  N   UNL     1      54.912  69.758  39.556  0.00  0.00    +0.000 N 
ATOM      3  N   UNL     1      52.634  71.069  38.641  0.00  0.00    +0.000 N 
ATOM      4  N   UNL     1      53.648  72.311  37.161  0.00  0.00    +0.000 NA
ATOM      5  N   UNL     1      52.300  72.575  37.108  0.00  0.00    +0.000 NA
ATOM      6  C   UNL     1      52.484  70.096  39.715  0.00  0.00    +0.000 C 
ATOM      7  C   UNL     1      55.159  70.812  38.544  0.00  0.00    +0.000 C 
ATOM      8  C   UNL     1      53.809  70.015  40.489  0.00  0.00    +0.000 C 
ATOM      9  C   UNL     1      53.850  71.405  38.092  0.00  0.00    +0.000 A 
ATOM     10  C   UNL     1      55.621  68.562  39.468  0.00  0.00    +0.000 C 
ATOM     11  C   UNL     1      52.065  68.734  39.157  0.00  0.00    +0.000 C 
ATOM     12  C   UNL     1      56.083  71.888  39.115  0.00  0.00    +0.000 C 
ATOM     13  C   UNL     1      51.683  71.825  38.007  0.00  0.00    +0.000 A 
ENDROOT
BRANCH  13  17
ATOM     14  F   UNL     1      49.558  72.852  37.744  0.00  0.00    +0.000 F 
ATOM     15  F   UNL     1      49.954  71.843  39.624  0.00  0.00    +0.000 F 
ATOM     16  F   UNL     1      49.626  70.684  37.799  0.00  0.00    +0.000 F 
ATOM     17  C   UNL     1      50.224  71.798  38.294  0.00  0.00    +0.000 C 
ENDBRANCH  13  17
BRANCH  10  18
ATOM     18  C   UNL     1      55.285  67.486  40.495  0.00  0.00    +0.000 C 
BRANCH  18  19
ATOM     19  C   UNL     1      56.420  67.165  41.482  0.00  0.00    +0.000 C 
BRANCH  19  20
ATOM     20  N   UNL     1      56.300  65.735  41.845  0.00  0.00    +0.000 NA
ATOM     21  H   UNL     1      56.932  65.190  41.255  0.00  0.00    +0.000 HD
ATOM     22  H   UNL     1      55.366  65.396  41.617  0.00  0.00    +0.000 HD
ENDBRANCH  19  20
BRANCH  19  23
ATOM     23  C   UNL     1      56.349  68.054  42.749  0.00  0.00    +0.000 C 
BRANCH  23  27
ATOM     24  F   UNL     1      58.944  68.437  41.586  0.00  0.00    +0.000 F 
ATOM     25  F   UNL     1      56.432  72.881  43.490  0.00  0.00    +0.000 F 
ATOM     26  F   UNL     1      58.918  73.077  42.360  0.00  0.00    +0.000 F 
ATOM     27  C   UNL     1      57.054  69.391  42.661  0.00  0.00    +0.000 A 
ATOM     28  C   UNL     1      58.320  69.518  42.072  0.00  0.00    +0.000 A 
ATOM     29  C   UNL     1      56.418  70.549  43.136  0.00  0.00    +0.000 A 
ATOM     30  C   UNL     1      57.053  71.785  43.030  0.00  0.00    +0.000 A 
ATOM     31  C   UNL     1      58.956  70.753  41.971  0.00  0.00    +0.000 A 
ATOM     32  C   UNL     1      58.315  71.883  42.456  0.00  0.00    +0.000 A 
ENDBRANCH  23  27
ENDBRANCH  19  23
ENDBRANCH  18  19
ENDBRANCH  10  18
TORSDOF 6
ENDMDL
MODEL 9
REMARK VINA RESULT:      -6.7     19.209     20.847
REMARK  Name = 24777442
REMARK  8 active torsions:
REMARK  status: ('A' for Active; 'I' for Inactive)
REMARK    1  A    between atoms: N_12  and  C_22
REMARK    2  A    between atoms: C_13  and  C_18
REMARK    3  A    between atoms: C_14  and  C_19
REMARK    4  A    between atoms: C_17  and  C_21
REMARK    5  A    between atoms: C_20  and  C_24
REMARK    6  A    between atoms: C_21  and  C_22
REMARK    7  A    between atoms: C_22  and  C_23
REMARK    8  A    between atoms: C_23  and  C_25
REMARK                            x       y       z     vdW  Elec       q    Type
REMARK                         _______ _______ _______ _____ _____    ______ ____
ROOT
ATOM      1  O   UNL     1      52.235  56.094  48.338  0.00  0.00    +0.000 OA
ATOM      2  N   UNL     1      50.852  54.990  49.787  0.00  0.00    +0.000 N 
ATOM      3  N   UNL     1      49.713  55.607  52.251  0.00  0.00    +0.000 N 
ATOM      4  N   UNL     1      51.593  55.834  53.336  0.00  0.00    +0.000 NA
ATOM      5  N   UNL     1      50.553  56.090  54.197  0.00  0.00    +0.000 NA
ATOM      6  C   UNL     1      48.824  55.326  51.132  0.00  0.00    +0.000 C 
ATOM      7  C   UNL     1      51.817  55.153  50.901  0.00  0.00    +0.000 C 
ATOM      8  C   UNL     1      49.556  54.403  50.146  0.00  0.00    +0.000 C 
ATOM      9  C   UNL     1      51.084  55.536  52.160  0.00  0.00    +0.000 A 
ATOM     10  C   UNL     1      51.168  55.525  48.541  0.00  0.00    +0.000 C 
ATOM     11  C   UNL     1      48.365  56.624  50.465  0.00  0.00    +0.000 C 
ATOM     12  C   UNL     1      52.618  53.865  51.099  0.00  0.00    +0.000 C 
ATOM     13  C   UNL     1      49.413  55.950  53.543  0.00  0.00    +0.000 A 
ENDROOT
BRANCH  13  17
ATOM     14  F   UNL     1      47.330  57.088  53.443  0.00  0.00    +0.000 F 
ATOM     15  F   UNL     1      48.049  56.489  55.401  0.00  0.00    +0.000 F 
ATOM     16  F   UNL     1      47.303  54.990  53.996  0.00  0.00    +0.000 F 
ATOM     17  C   UNL     1      48.042  56.125  54.094  0.00  0.00    +0.000 C 
ENDBRANCH  13  17
BRANCH  10  18
ATOM     18  C   UNL     1      50.116  55.387  47.446  0.00  0.00    +0.000 C 
BRANCH  18  19
ATOM     19  C   UNL     1      50.452  54.349  46.361  0.00  0.00    +0.000 C 
BRANCH  19  20
ATOM     20  N   UNL     1      49.525  54.574  45.229  0.00  0.00    +0.000 NA
ATOM     21  H   UNL     1      48.723  55.114  45.562  0.00  0.00    +0.000 HD
ATOM     22  H   UNL     1      49.135  53.685  44.918  0.00  0.00    +0.000 HD
ENDBRANCH  19  20
BRANCH  19  23
ATOM     23  C   UNL     1      50.319  52.899  46.892  0.00  0.00    +0.000 C 
BRANCH  23  27
ATOM     24  F   UNL     1      49.788  50.334  45.721  0.00  0.00    +0.000 F 
ATOM     25  F   UNL     1      55.022  51.751  46.250  0.00  0.00    +0.000 F 
ATOM     26  F   UNL     1      54.350  49.331  45.161  0.00  0.00    +0.000 F 
ATOM     27  C   UNL     1      51.392  51.928  46.446  0.00  0.00    +0.000 A 
ATOM     28  C   UNL     1      51.071  50.691  45.871  0.00  0.00    +0.000 A 
ATOM     29  C   UNL     1      52.746  52.280  46.564  0.00  0.00    +0.000 A 
ATOM     30  C   UNL     1      53.734  51.400  46.129  0.00  0.00    +0.000 A 
ATOM     31  C   UNL     1      52.060  49.809  45.440  0.00  0.00    +0.000 A 
ATOM     32  C   UNL     1      53.391  50.172  45.576  0.00  0.00    +0.000 A 
ENDBRANCH  23  27
ENDBRANCH  19  23
ENDBRANCH  18  19
ENDBRANCH  10  18
TORSDOF 6
ENDMDL
