MODEL 1
REMARK VINA RESULT:      -9.1      0.000      0.000
REMARK  Name = 10026124
REMARK  10 active torsions:
REMARK  status: ('A' for Active; 'I' for Inactive)
REMARK    1  A    between atoms: N_9  and  C_20
REMARK    2  A    between atoms: N_11  and  C_18
REMARK    3  A    between atoms: C_16  and  C_17
REMARK    4  A    between atoms: C_16  and  C_18
REMARK    5  A    between atoms: C_18  and  C_21
REMARK    6  A    between atoms: C_19  and  C_22
REMARK    7  A    between atoms: C_20  and  C_24
REMARK    8  A    between atoms: C_20  and  C_25
REMARK    9  A    between atoms: C_20  and  C_26
REMARK   10  A    between atoms: C_21  and  C_23
REMARK                            x       y       z     vdW  Elec       q    Type
REMARK                         _______ _______ _______ _____ _____    ______ ____
ROOT
ATOM      1  O   UNL     1      46.105  72.704  50.997  0.00  0.00    +0.000 OA
ATOM      2  N   UNL     1      47.502  71.330  49.826  0.00  0.00    +0.000 N 
ATOM      3  N   UNL     1      49.521  69.876  51.059  0.00  0.00    +0.000 N 
ATOM      4  N   UNL     1      51.070  70.455  49.623  0.00  0.00    +0.000 NA
ATOM      5  N   UNL     1      51.674  69.837  50.702  0.00  0.00    +0.000 NA
ATOM      6  C   UNL     1      47.105  70.149  50.611  0.00  0.00    +0.000 C 
ATOM      7  C   UNL     1      48.189  69.753  51.625  0.00  0.00    +0.000 C 
ATOM      8  C   UNL     1      48.689  71.099  49.000  0.00  0.00    +0.000 C 
ATOM      9  C   UNL     1      49.770  70.499  49.854  0.00  0.00    +0.000 A 
ATOM     10  C   UNL     1      46.875  72.550  50.046  0.00  0.00    +0.000 C 
ATOM     11  C   UNL     1      50.745  69.516  51.589  0.00  0.00    +0.000 A 
ENDROOT
BRANCH  11  14
ATOM     12  O   UNL     1      52.163  68.963  53.384  0.00  0.00    +0.000 OA
ATOM     13  N   UNL     1      49.953  68.335  53.565  0.00  0.00    +0.000 N 
ATOM     14  C   UNL     1      51.032  68.937  52.907  0.00  0.00    +0.000 C 
ATOM     15  H   UNL     1      49.103  68.280  53.011  0.00  0.00    +0.000 HD
BRANCH  13  16
ATOM     16  C   UNL     1      50.051  67.455  54.765  0.00  0.00    +0.000 C 
ATOM     17  C   UNL     1      50.608  68.184  56.003  0.00  0.00    +0.000 C 
ATOM     18  C   UNL     1      48.654  66.922  55.172  0.00  0.00    +0.000 C 
ATOM     19  C   UNL     1      50.925  66.228  54.454  0.00  0.00    +0.000 C 
ENDBRANCH  13  16
ENDBRANCH  11  14
BRANCH  10  20
ATOM     20  C   UNL     1      47.046  73.686  49.034  0.00  0.00    +0.000 C 
BRANCH  20  21
ATOM     21  C   UNL     1      46.498  75.077  49.437  0.00  0.00    +0.000 C 
BRANCH  21  22
ATOM     22  N   UNL     1      45.029  75.036  49.274  0.00  0.00    +0.000 NA
ATOM     23  H   UNL     1      44.702  74.071  49.351  0.00  0.00    +0.000 HD
ATOM     24  H   UNL     1      44.582  75.535  50.045  0.00  0.00    +0.000 HD
ENDBRANCH  21  22
BRANCH  21  25
ATOM     25  C   UNL     1      47.092  76.197  48.554  0.00  0.00    +0.000 C 
BRANCH  25  29
ATOM     26  F   UNL     1      48.122  78.579  47.314  0.00  0.00    +0.000 F 
ATOM     27  F   UNL     1      50.498  76.991  51.956  0.00  0.00    +0.000 F 
ATOM     28  F   UNL     1      51.285  79.315  50.739  0.00  0.00    +0.000 F 
ATOM     29  C   UNL     1      48.278  76.987  49.064  0.00  0.00    +0.000 A 
ATOM     30  C   UNL     1      48.708  78.170  48.448  0.00  0.00    +0.000 A 
ATOM     31  C   UNL     1      48.914  76.596  50.253  0.00  0.00    +0.000 A 
ATOM     32  C   UNL     1      49.924  77.376  50.807  0.00  0.00    +0.000 A 
ATOM     33  C   UNL     1      49.722  78.957  48.999  0.00  0.00    +0.000 A 
ATOM     34  C   UNL     1      50.319  78.559  50.190  0.00  0.00    +0.000 A 
ENDBRANCH  25  29
ENDBRANCH  21  25
ENDBRANCH  20  21
ENDBRANCH  10  20
TORSDOF 7
ENDMDL
MODEL 2
REMARK VINA RESULT:      -8.6     25.273     27.620
REMARK  Name = 10026124
REMARK  10 active torsions:
REMARK  status: ('A' for Active; 'I' for Inactive)
REMARK    1  A    between atoms: N_9  and  C_20
REMARK    2  A    between atoms: N_11  and  C_18
REMARK    3  A    between atoms: C_16  and  C_17
REMARK    4  A    between atoms: C_16  and  C_18
REMARK    5  A    between atoms: C_18  and  C_21
REMARK    6  A    between atoms: C_19  and  C_22
REMARK    7  A    between atoms: C_20  and  C_24
REMARK    8  A    between atoms: C_20  and  C_25
REMARK    9  A    between atoms: C_20  and  C_26
REMARK   10  A    between atoms: C_21  and  C_23
REMARK                            x       y       z     vdW  Elec       q    Type
REMARK                         _______ _______ _______ _____ _____    ______ ____
ROOT
ATOM      1  O   UNL     1      41.508  51.936  37.948  0.00  0.00    +0.000 OA
ATOM      2  N   UNL     1      42.780  51.312  36.159  0.00  0.00    +0.000 N 
ATOM      3  N   UNL     1      45.400  52.175  35.836  0.00  0.00    +0.000 N 
ATOM      4  N   UNL     1      45.144  52.767  33.743  0.00  0.00    +0.000 NA
ATOM      5  N   UNL     1      46.356  53.253  34.196  0.00  0.00    +0.000 NA
ATOM      6  C   UNL     1      43.807  50.701  37.020  0.00  0.00    +0.000 C 
ATOM      7  C   UNL     1      45.062  51.582  37.118  0.00  0.00    +0.000 C 
ATOM      8  C   UNL     1      43.212  51.467  34.768  0.00  0.00    +0.000 C 
ATOM      9  C   UNL     1      44.557  52.137  34.745  0.00  0.00    +0.000 A 
ATOM     10  C   UNL     1      41.623  51.832  36.725  0.00  0.00    +0.000 C 
ATOM     11  C   UNL     1      46.500  52.927  35.472  0.00  0.00    +0.000 A 
ENDROOT
BRANCH  11  14
ATOM     12  O   UNL     1      48.680  52.742  36.340  0.00  0.00    +0.000 OA
ATOM     13  N   UNL     1      47.403  54.510  37.086  0.00  0.00    +0.000 N 
ATOM     14  C   UNL     1      47.622  53.365  36.310  0.00  0.00    +0.000 C 
ATOM     15  H   UNL     1      46.449  54.860  37.055  0.00  0.00    +0.000 HD
BRANCH  13  16
ATOM     16  C   UNL     1      48.274  54.983  38.200  0.00  0.00    +0.000 C 
ATOM     17  C   UNL     1      49.692  55.369  37.735  0.00  0.00    +0.000 C 
ATOM     18  C   UNL     1      47.678  56.249  38.865  0.00  0.00    +0.000 C 
ATOM     19  C   UNL     1      48.368  53.905  39.294  0.00  0.00    +0.000 C 
ENDBRANCH  13  16
ENDBRANCH  11  14
BRANCH  10  20
ATOM     20  C   UNL     1      40.426  52.171  35.833  0.00  0.00    +0.000 C 
BRANCH  20  21
ATOM     21  C   UNL     1      39.456  51.016  35.484  0.00  0.00    +0.000 C 
BRANCH  21  22
ATOM     22  N   UNL     1      38.421  51.566  34.583  0.00  0.00    +0.000 NA
ATOM     23  H   UNL     1      37.894  50.801  34.157  0.00  0.00    +0.000 HD
ATOM     24  H   UNL     1      37.737  52.096  35.125  0.00  0.00    +0.000 HD
ENDBRANCH  21  22
BRANCH  21  25
ATOM     25  C   UNL     1      38.791  50.433  36.751  0.00  0.00    +0.000 C 
BRANCH  25  29
ATOM     26  F   UNL     1      36.525  51.948  37.670  0.00  0.00    +0.000 F 
ATOM     27  F   UNL     1      35.485  47.155  35.289  0.00  0.00    +0.000 F 
ATOM     28  F   UNL     1      33.419  48.765  36.088  0.00  0.00    +0.000 F 
ATOM     29  C   UNL     1      37.355  49.960  36.678  0.00  0.00    +0.000 A 
ATOM     30  C   UNL     1      36.283  50.760  37.096  0.00  0.00    +0.000 A 
ATOM     31  C   UNL     1      37.059  48.726  36.078  0.00  0.00    +0.000 A 
ATOM     32  C   UNL     1      35.740  48.328  35.886  0.00  0.00    +0.000 A 
ATOM     33  C   UNL     1      34.956  50.366  36.908  0.00  0.00    +0.000 A 
ATOM     34  C   UNL     1      34.691  49.149  36.289  0.00  0.00    +0.000 A 
ENDBRANCH  25  29
ENDBRANCH  21  25
ENDBRANCH  20  21
ENDBRANCH  10  20
TORSDOF 7
ENDMDL
MODEL 3
REMARK VINA RESULT:      -7.9     20.898     23.302
REMARK  Name = 10026124
REMARK  10 active torsions:
REMARK  status: ('A' for Active; 'I' for Inactive)
REMARK    1  A    between atoms: N_9  and  C_20
REMARK    2  A    between atoms: N_11  and  C_18
REMARK    3  A    between atoms: C_16  and  C_17
REMARK    4  A    between atoms: C_16  and  C_18
REMARK    5  A    between atoms: C_18  and  C_21
REMARK    6  A    between atoms: C_19  and  C_22
REMARK    7  A    between atoms: C_20  and  C_24
REMARK    8  A    between atoms: C_20  and  C_25
REMARK    9  A    between atoms: C_20  and  C_26
REMARK   10  A    between atoms: C_21  and  C_23
REMARK                            x       y       z     vdW  Elec       q    Type
REMARK                         _______ _______ _______ _____ _____    ______ ____
ROOT
ATOM      1  O   UNL     1      30.017  66.607  39.561  0.00  0.00    +0.000 OA
ATOM      2  N   UNL     1      29.067  65.316  41.186  0.00  0.00    +0.000 N 
ATOM      3  N   UNL     1      30.519  64.364  43.354  0.00  0.00    +0.000 N 
ATOM      4  N   UNL     1      29.795  62.305  43.172  0.00  0.00    +0.000 NA
ATOM      5  N   UNL     1      30.846  62.327  44.068  0.00  0.00    +0.000 NA
ATOM      6  C   UNL     1      29.416  66.278  42.245  0.00  0.00    +0.000 C 
ATOM      7  C   UNL     1      30.604  65.789  43.086  0.00  0.00    +0.000 C 
ATOM      8  C   UNL     1      28.620  64.023  41.708  0.00  0.00    +0.000 C 
ATOM      9  C   UNL     1      29.616  63.534  42.723  0.00  0.00    +0.000 A 
ATOM     10  C   UNL     1      29.342  65.619  39.858  0.00  0.00    +0.000 C 
ATOM     11  C   UNL     1      31.310  63.565  44.156  0.00  0.00    +0.000 A 
ENDROOT
BRANCH  11  14
ATOM     12  O   UNL     1      32.400  64.662  45.930  0.00  0.00    +0.000 OA
ATOM     13  N   UNL     1      33.723  63.469  44.467  0.00  0.00    +0.000 N 
ATOM     14  C   UNL     1      32.493  63.945  44.936  0.00  0.00    +0.000 C 
ATOM     15  H   UNL     1      33.671  62.986  43.573  0.00  0.00    +0.000 HD
BRANCH  13  16
ATOM     16  C   UNL     1      35.065  63.936  44.919  0.00  0.00    +0.000 C 
ATOM     17  C   UNL     1      35.281  65.447  44.702  0.00  0.00    +0.000 C 
ATOM     18  C   UNL     1      35.250  63.688  46.438  0.00  0.00    +0.000 C 
ATOM     19  C   UNL     1      36.172  63.149  44.198  0.00  0.00    +0.000 C 
ENDBRANCH  13  16
ENDBRANCH  11  14
BRANCH  10  20
ATOM     20  C   UNL     1      28.705  64.788  38.741  0.00  0.00    +0.000 C 
BRANCH  20  21
ATOM     21  C   UNL     1      29.573  63.672  38.110  0.00  0.00    +0.000 C 
BRANCH  21  22
ATOM     22  N   UNL     1      30.980  63.954  38.466  0.00  0.00    +0.000 NA
ATOM     23  H   UNL     1      31.271  63.341  39.229  0.00  0.00    +0.000 HD
ATOM     24  H   UNL     1      31.589  63.715  37.681  0.00  0.00    +0.000 HD
ENDBRANCH  21  22
BRANCH  21  25
ATOM     25  C   UNL     1      29.419  63.636  36.573  0.00  0.00    +0.000 C 
BRANCH  25  29
ATOM     26  F   UNL     1      26.937  64.406  35.340  0.00  0.00    +0.000 F 
ATOM     27  F   UNL     1      31.014  68.018  35.139  0.00  0.00    +0.000 F 
ATOM     28  F   UNL     1      28.555  68.671  34.127  0.00  0.00    +0.000 F 
ATOM     29  C   UNL     1      29.197  64.933  35.824  0.00  0.00    +0.000 A 
ATOM     30  C   UNL     1      27.952  65.280  35.284  0.00  0.00    +0.000 A 
ATOM     31  C   UNL     1      30.233  65.877  35.749  0.00  0.00    +0.000 A 
ATOM     32  C   UNL     1      30.014  67.126  35.176  0.00  0.00    +0.000 A 
ATOM     33  C   UNL     1      27.726  66.532  34.706  0.00  0.00    +0.000 A 
ATOM     34  C   UNL     1      28.763  67.458  34.666  0.00  0.00    +0.000 A 
ENDBRANCH  25  29
ENDBRANCH  21  25
ENDBRANCH  20  21
ENDBRANCH  10  20
TORSDOF 7
ENDMDL
MODEL 4
REMARK VINA RESULT:      -7.8     21.017     24.778
REMARK  Name = 10026124
REMARK  10 active torsions:
REMARK  status: ('A' for Active; 'I' for Inactive)
REMARK    1  A    between atoms: N_9  and  C_20
REMARK    2  A    between atoms: N_11  and  C_18
REMARK    3  A    between atoms: C_16  and  C_17
REMARK    4  A    between atoms: C_16  and  C_18
REMARK    5  A    between atoms: C_18  and  C_21
REMARK    6  A    between atoms: C_19  and  C_22
REMARK    7  A    between atoms: C_20  and  C_24
REMARK    8  A    between atoms: C_20  and  C_25
REMARK    9  A    between atoms: C_20  and  C_26
REMARK   10  A    between atoms: C_21  and  C_23
REMARK                            x       y       z     vdW  Elec       q    Type
REMARK                         _______ _______ _______ _____ _____    ______ ____
ROOT
ATOM      1  O   UNL     1      39.315  50.467  51.806  0.00  0.00    +0.000 OA
ATOM      2  N   UNL     1      38.341  52.466  51.291  0.00  0.00    +0.000 N 
ATOM      3  N   UNL     1      39.045  54.827  52.572  0.00  0.00    +0.000 N 
ATOM      4  N   UNL     1      36.982  55.448  52.965  0.00  0.00    +0.000 NA
ATOM      5  N   UNL     1      37.835  56.263  53.684  0.00  0.00    +0.000 NA
ATOM      6  C   UNL     1      39.631  53.075  50.928  0.00  0.00    +0.000 C 
ATOM      7  C   UNL     1      40.130  54.035  52.019  0.00  0.00    +0.000 C 
ATOM      8  C   UNL     1      37.258  53.443  51.422  0.00  0.00    +0.000 C 
ATOM      9  C   UNL     1      37.717  54.564  52.313  0.00  0.00    +0.000 A 
ATOM     10  C   UNL     1      38.284  51.122  51.639  0.00  0.00    +0.000 C 
ATOM     11  C   UNL     1      39.083  55.870  53.477  0.00  0.00    +0.000 A 
ENDROOT
BRANCH  11  14
ATOM     12  O   UNL     1      40.692  57.545  53.855  0.00  0.00    +0.000 OA
ATOM     13  N   UNL     1      40.835  55.646  55.152  0.00  0.00    +0.000 N 
ATOM     14  C   UNL     1      40.249  56.441  54.160  0.00  0.00    +0.000 C 
ATOM     15  H   UNL     1      40.443  54.711  55.224  0.00  0.00    +0.000 HD
BRANCH  13  16
ATOM     16  C   UNL     1      42.165  55.885  55.782  0.00  0.00    +0.000 C 
ATOM     17  C   UNL     1      42.654  54.692  56.628  0.00  0.00    +0.000 C 
ATOM     18  C   UNL     1      43.251  56.121  54.703  0.00  0.00    +0.000 C 
ATOM     19  C   UNL     1      42.119  57.150  56.655  0.00  0.00    +0.000 C 
ENDBRANCH  13  16
ENDBRANCH  11  14
BRANCH  10  20
ATOM     20  C   UNL     1      36.930  50.409  51.703  0.00  0.00    +0.000 C 
BRANCH  20  21
ATOM     21  C   UNL     1      36.698  49.245  50.709  0.00  0.00    +0.000 C 
BRANCH  21  22
ATOM     22  N   UNL     1      37.515  48.102  51.171  0.00  0.00    +0.000 NA
ATOM     23  H   UNL     1      37.034  47.227  50.955  0.00  0.00    +0.000 HD
ATOM     24  H   UNL     1      38.389  48.066  50.643  0.00  0.00    +0.000 HD
ENDBRANCH  21  22
BRANCH  21  25
ATOM     25  C   UNL     1      37.111  49.637  49.272  0.00  0.00    +0.000 C 
BRANCH  25  29
ATOM     26  F   UNL     1      38.383  49.343  46.709  0.00  0.00    +0.000 F 
ATOM     27  F   UNL     1      33.643  46.746  47.421  0.00  0.00    +0.000 F 
ATOM     28  F   UNL     1      35.033  46.445  45.080  0.00  0.00    +0.000 F 
ATOM     29  C   UNL     1      36.523  48.874  48.103  0.00  0.00    +0.000 A 
ATOM     30  C   UNL     1      37.209  48.722  46.891  0.00  0.00    +0.000 A 
ATOM     31  C   UNL     1      35.300  48.203  48.257  0.00  0.00    +0.000 A 
ATOM     32  C   UNL     1      34.803  47.394  47.239  0.00  0.00    +0.000 A 
ATOM     33  C   UNL     1      36.715  47.911  45.866  0.00  0.00    +0.000 A 
ATOM     34  C   UNL     1      35.512  47.239  46.052  0.00  0.00    +0.000 A 
ENDBRANCH  25  29
ENDBRANCH  21  25
ENDBRANCH  20  21
ENDBRANCH  10  20
TORSDOF 7
ENDMDL
MODEL 5
REMARK VINA RESULT:      -7.7     25.748     28.081
REMARK  Name = 10026124
REMARK  10 active torsions:
REMARK  status: ('A' for Active; 'I' for Inactive)
REMARK    1  A    between atoms: N_9  and  C_20
REMARK    2  A    between atoms: N_11  and  C_18
REMARK    3  A    between atoms: C_16  and  C_17
REMARK    4  A    between atoms: C_16  and  C_18
REMARK    5  A    between atoms: C_18  and  C_21
REMARK    6  A    between atoms: C_19  and  C_22
REMARK    7  A    between atoms: C_20  and  C_24
REMARK    8  A    between atoms: C_20  and  C_25
REMARK    9  A    between atoms: C_20  and  C_26
REMARK   10  A    between atoms: C_21  and  C_23
REMARK                            x       y       z     vdW  Elec       q    Type
REMARK                         _______ _______ _______ _____ _____    ______ ____
ROOT
ATOM      1  O   UNL     1      48.166  50.636  37.575  0.00  0.00    +0.000 OA
ATOM      2  N   UNL     1      47.195  52.174  36.195  0.00  0.00    +0.000 N 
ATOM      3  N   UNL     1      44.459  52.217  35.724  0.00  0.00    +0.000 N 
ATOM      4  N   UNL     1      44.648  52.365  33.547  0.00  0.00    +0.000 NA
ATOM      5  N   UNL     1      43.330  52.093  33.860  0.00  0.00    +0.000 NA
ATOM      6  C   UNL     1      46.330  52.688  37.270  0.00  0.00    +0.000 C 
ATOM      7  C   UNL     1      44.882  52.199  37.113  0.00  0.00    +0.000 C 
ATOM      8  C   UNL     1      46.806  52.648  34.865  0.00  0.00    +0.000 C 
ATOM      9  C   UNL     1      45.333  52.414  34.676  0.00  0.00    +0.000 A 
ATOM     10  C   UNL     1      48.143  51.198  36.477  0.00  0.00    +0.000 C 
ATOM     11  C   UNL     1      43.217  51.968  35.174  0.00  0.00    +0.000 A 
ENDROOT
BRANCH  11  14
ATOM     12  O   UNL     1      41.006  52.323  35.898  0.00  0.00    +0.000 OA
ATOM     13  N   UNL     1      41.988  50.321  36.480  0.00  0.00    +0.000 N 
ATOM     14  C   UNL     1      41.979  51.575  35.858  0.00  0.00    +0.000 C 
ATOM     15  H   UNL     1      42.892  49.855  36.470  0.00  0.00    +0.000 HD
BRANCH  13  16
ATOM     16  C   UNL     1      40.970  49.826  37.450  0.00  0.00    +0.000 C 
ATOM     17  C   UNL     1      41.346  48.470  38.079  0.00  0.00    +0.000 C 
ATOM     18  C   UNL     1      40.807  50.817  38.630  0.00  0.00    +0.000 C 
ATOM     19  C   UNL     1      39.596  49.713  36.767  0.00  0.00    +0.000 C 
ENDBRANCH  13  16
ENDBRANCH  11  14
BRANCH  10  20
ATOM     20  C   UNL     1      49.247  50.893  35.461  0.00  0.00    +0.000 C 
BRANCH  20  21
ATOM     21  C   UNL     1      49.677  49.413  35.309  0.00  0.00    +0.000 C 
BRANCH  21  22
ATOM     22  N   UNL     1      50.358  49.022  36.562  0.00  0.00    +0.000 NA
ATOM     23  H   UNL     1      51.260  49.497  36.625  0.00  0.00    +0.000 HD
ATOM     24  H   UNL     1      49.822  49.354  37.365  0.00  0.00    +0.000 HD
ENDBRANCH  21  22
BRANCH  21  25
ATOM     25  C   UNL     1      50.633  49.221  34.111  0.00  0.00    +0.000 C 
BRANCH  25  29
ATOM     26  F   UNL     1      52.254  51.542  34.617  0.00  0.00    +0.000 F 
ATOM     27  F   UNL     1      54.751  46.701  34.815  0.00  0.00    +0.000 F 
ATOM     28  F   UNL     1      56.141  48.985  35.410  0.00  0.00    +0.000 F 
ATOM     29  C   UNL     1      52.126  49.189  34.357  0.00  0.00    +0.000 A 
ATOM     30  C   UNL     1      52.860  50.347  34.647  0.00  0.00    +0.000 A 
ATOM     31  C   UNL     1      52.796  47.956  34.405  0.00  0.00    +0.000 A 
ATOM     32  C   UNL     1      54.142  47.893  34.754  0.00  0.00    +0.000 A 
ATOM     33  C   UNL     1      54.211  50.290  34.997  0.00  0.00    +0.000 A 
ATOM     34  C   UNL     1      54.845  49.054  35.060  0.00  0.00    +0.000 A 
ENDBRANCH  25  29
ENDBRANCH  21  25
ENDBRANCH  20  21
ENDBRANCH  10  20
TORSDOF 7
ENDMDL
MODEL 6
REMARK VINA RESULT:      -7.5     20.173     23.127
REMARK  Name = 10026124
REMARK  10 active torsions:
REMARK  status: ('A' for Active; 'I' for Inactive)
REMARK    1  A    between atoms: N_9  and  C_20
REMARK    2  A    between atoms: N_11  and  C_18
REMARK    3  A    between atoms: C_16  and  C_17
REMARK    4  A    between atoms: C_16  and  C_18
REMARK    5  A    between atoms: C_18  and  C_21
REMARK    6  A    between atoms: C_19  and  C_22
REMARK    7  A    between atoms: C_20  and  C_24
REMARK    8  A    between atoms: C_20  and  C_25
REMARK    9  A    between atoms: C_20  and  C_26
REMARK   10  A    between atoms: C_21  and  C_23
REMARK                            x       y       z     vdW  Elec       q    Type
REMARK                         _______ _______ _______ _____ _____    ______ ____
ROOT
ATOM      1  O   UNL     1      28.214  65.798  41.620  0.00  0.00    +0.000 OA
ATOM      2  N   UNL     1      30.297  66.337  40.857  0.00  0.00    +0.000 N 
ATOM      3  N   UNL     1      31.653  68.597  41.733  0.00  0.00    +0.000 N 
ATOM      4  N   UNL     1      32.206  69.272  39.724  0.00  0.00    +0.000 NA
ATOM      5  N   UNL     1      32.479  70.285  40.623  0.00  0.00    +0.000 NA
ATOM      6  C   UNL     1      30.874  66.300  42.211  0.00  0.00    +0.000 C 
ATOM      7  C   UNL     1      31.126  67.713  42.759  0.00  0.00    +0.000 C 
ATOM      8  C   UNL     1      31.190  66.943  39.867  0.00  0.00    +0.000 C 
ATOM      9  C   UNL     1      31.683  68.261  40.396  0.00  0.00    +0.000 A 
ATOM     10  C   UNL     1      28.967  65.986  40.662  0.00  0.00    +0.000 C 
ATOM     11  C   UNL     1      32.114  69.895  41.835  0.00  0.00    +0.000 A 
ENDROOT
BRANCH  11  14
ATOM     12  O   UNL     1      31.230  71.504  43.308  0.00  0.00    +0.000 OA
ATOM     13  N   UNL     1      33.331  70.688  43.788  0.00  0.00    +0.000 N 
ATOM     14  C   UNL     1      32.161  70.755  43.023  0.00  0.00    +0.000 C 
ATOM     15  H   UNL     1      34.066  70.117  43.380  0.00  0.00    +0.000 HD
BRANCH  13  16
ATOM     16  C   UNL     1      33.721  71.646  44.863  0.00  0.00    +0.000 C 
ATOM     17  C   UNL     1      33.587  73.120  44.434  0.00  0.00    +0.000 C 
ATOM     18  C   UNL     1      32.814  71.475  46.108  0.00  0.00    +0.000 C 
ATOM     19  C   UNL     1      35.164  71.372  45.320  0.00  0.00    +0.000 C 
ENDBRANCH  13  16
ENDBRANCH  11  14
BRANCH  10  20
ATOM     20  C   UNL     1      28.453  65.713  39.245  0.00  0.00    +0.000 C 
BRANCH  20  21
ATOM     21  C   UNL     1      28.292  64.231  38.827  0.00  0.00    +0.000 C 
BRANCH  21  22
ATOM     22  N   UNL     1      28.446  63.410  40.048  0.00  0.00    +0.000 NA
ATOM     23  H   UNL     1      27.525  63.189  40.431  0.00  0.00    +0.000 HD
ATOM     24  H   UNL     1      28.860  62.508  39.807  0.00  0.00    +0.000 HD
ENDBRANCH  21  22
BRANCH  21  25
ATOM     25  C   UNL     1      29.353  63.819  37.782  0.00  0.00    +0.000 C 
BRANCH  25  29
ATOM     26  F   UNL     1      27.383  64.001  35.695  0.00  0.00    +0.000 F 
ATOM     27  F   UNL     1      31.858  67.063  35.135  0.00  0.00    +0.000 F 
ATOM     28  F   UNL     1      29.838  67.239  33.294  0.00  0.00    +0.000 F 
ATOM     29  C   UNL     1      29.508  64.646  36.524  0.00  0.00    +0.000 A 
ATOM     30  C   UNL     1      28.495  64.738  35.561  0.00  0.00    +0.000 A 
ATOM     31  C   UNL     1      30.655  65.438  36.351  0.00  0.00    +0.000 A 
ATOM     32  C   UNL     1      30.762  66.301  35.265  0.00  0.00    +0.000 A 
ATOM     33  C   UNL     1      28.598  65.602  34.468  0.00  0.00    +0.000 A 
ATOM     34  C   UNL     1      29.734  66.393  34.333  0.00  0.00    +0.000 A 
ENDBRANCH  25  29
ENDBRANCH  21  25
ENDBRANCH  20  21
ENDBRANCH  10  20
TORSDOF 7
ENDMDL
MODEL 7
REMARK VINA RESULT:      -7.5     20.983     24.144
REMARK  Name = 10026124
REMARK  10 active torsions:
REMARK  status: ('A' for Active; 'I' for Inactive)
REMARK    1  A    between atoms: N_9  and  C_20
REMARK    2  A    between atoms: N_11  and  C_18
REMARK    3  A    between atoms: C_16  and  C_17
REMARK    4  A    between atoms: C_16  and  C_18
REMARK    5  A    between atoms: C_18  and  C_21
REMARK    6  A    between atoms: C_19  and  C_22
REMARK    7  A    between atoms: C_20  and  C_24
REMARK    8  A    between atoms: C_20  and  C_25
REMARK    9  A    between atoms: C_20  and  C_26
REMARK   10  A    between atoms: C_21  and  C_23
REMARK                            x       y       z     vdW  Elec       q    Type
REMARK                         _______ _______ _______ _____ _____    ______ ____
ROOT
ATOM      1  O   UNL     1      27.794  65.469  42.192  0.00  0.00    +0.000 OA
ATOM      2  N   UNL     1      29.539  65.159  40.753  0.00  0.00    +0.000 N 
ATOM      3  N   UNL     1      29.253  65.431  38.004  0.00  0.00    +0.000 N 
ATOM      4  N   UNL     1      30.272  63.553  37.525  0.00  0.00    +0.000 NA
ATOM      5  N   UNL     1      29.659  64.028  36.381  0.00  0.00    +0.000 NA
ATOM      6  C   UNL     1      29.422  66.524  40.215  0.00  0.00    +0.000 C 
ATOM      7  C   UNL     1      28.773  66.531  38.822  0.00  0.00    +0.000 C 
ATOM      8  C   UNL     1      30.413  64.298  39.954  0.00  0.00    +0.000 C 
ATOM      9  C   UNL     1      30.003  64.390  38.510  0.00  0.00    +0.000 A 
ATOM     10  C   UNL     1      28.725  64.758  41.805  0.00  0.00    +0.000 C 
ATOM     11  C   UNL     1      29.012  65.146  36.674  0.00  0.00    +0.000 A 
ENDROOT
BRANCH  11  14
ATOM     12  O   UNL     1      27.283  65.304  35.085  0.00  0.00    +0.000 OA
ATOM     13  N   UNL     1      28.429  67.241  35.580  0.00  0.00    +0.000 N 
ATOM     14  C   UNL     1      28.161  65.875  35.726  0.00  0.00    +0.000 C 
ATOM     15  H   UNL     1      29.254  67.562  36.079  0.00  0.00    +0.000 HD
BRANCH  13  16
ATOM     16  C   UNL     1      27.894  68.119  34.499  0.00  0.00    +0.000 C 
ATOM     17  C   UNL     1      26.367  68.313  34.580  0.00  0.00    +0.000 C 
ATOM     18  C   UNL     1      28.514  69.537  34.585  0.00  0.00    +0.000 C 
ATOM     19  C   UNL     1      28.268  67.550  33.120  0.00  0.00    +0.000 C 
ENDBRANCH  13  16
ENDBRANCH  11  14
BRANCH  10  20
ATOM     20  C   UNL     1      29.052  63.475  42.573  0.00  0.00    +0.000 C 
BRANCH  20  21
ATOM     21  C   UNL     1      30.407  63.426  43.320  0.00  0.00    +0.000 C 
BRANCH  21  22
ATOM     22  N   UNL     1      30.468  62.136  44.039  0.00  0.00    +0.000 NA
ATOM     23  H   UNL     1      31.439  61.823  44.102  0.00  0.00    +0.000 HD
ATOM     24  H   UNL     1      30.163  62.264  45.005  0.00  0.00    +0.000 HD
ENDBRANCH  21  22
BRANCH  21  25
ATOM     25  C   UNL     1      30.542  64.592  44.325  0.00  0.00    +0.000 C 
BRANCH  25  29
ATOM     26  F   UNL     1      32.896  64.159  45.920  0.00  0.00    +0.000 F 
ATOM     27  F   UNL     1      33.065  68.268  42.341  0.00  0.00    +0.000 F 
ATOM     28  F   UNL     1      35.281  67.655  43.828  0.00  0.00    +0.000 F 
ATOM     29  C   UNL     1      31.781  65.462  44.283  0.00  0.00    +0.000 A 
ATOM     30  C   UNL     1      32.920  65.177  45.047  0.00  0.00    +0.000 A 
ATOM     31  C   UNL     1      31.848  66.532  43.376  0.00  0.00    +0.000 A 
ATOM     32  C   UNL     1      33.021  67.266  43.231  0.00  0.00    +0.000 A 
ATOM     33  C   UNL     1      34.100  65.911  44.906  0.00  0.00    +0.000 A 
ATOM     34  C   UNL     1      34.147  66.950  43.984  0.00  0.00    +0.000 A 
ENDBRANCH  25  29
ENDBRANCH  21  25
ENDBRANCH  20  21
ENDBRANCH  10  20
TORSDOF 7
ENDMDL
MODEL 8
REMARK VINA RESULT:      -7.1     19.920     23.500
REMARK  Name = 10026124
REMARK  10 active torsions:
REMARK  status: ('A' for Active; 'I' for Inactive)
REMARK    1  A    between atoms: N_9  and  C_20
REMARK    2  A    between atoms: N_11  and  C_18
REMARK    3  A    between atoms: C_16  and  C_17
REMARK    4  A    between atoms: C_16  and  C_18
REMARK    5  A    between atoms: C_18  and  C_21
REMARK    6  A    between atoms: C_19  and  C_22
REMARK    7  A    between atoms: C_20  and  C_24
REMARK    8  A    between atoms: C_20  and  C_25
REMARK    9  A    between atoms: C_20  and  C_26
REMARK   10  A    between atoms: C_21  and  C_23
REMARK                            x       y       z     vdW  Elec       q    Type
REMARK                         _______ _______ _______ _____ _____    ______ ____
ROOT
ATOM      1  O   UNL     1      39.102  50.235  51.560  0.00  0.00    +0.000 OA
ATOM      2  N   UNL     1      38.287  52.334  51.186  0.00  0.00    +0.000 N 
ATOM      3  N   UNL     1      39.201  54.546  52.594  0.00  0.00    +0.000 N 
ATOM      4  N   UNL     1      37.202  55.306  53.064  0.00  0.00    +0.000 NA
ATOM      5  N   UNL     1      38.129  56.004  53.815  0.00  0.00    +0.000 NA
ATOM      6  C   UNL     1      39.618  52.858  50.836  0.00  0.00    +0.000 C 
ATOM      7  C   UNL     1      40.210  53.705  51.974  0.00  0.00    +0.000 C 
ATOM      8  C   UNL     1      37.290  53.386  51.397  0.00  0.00    +0.000 C 
ATOM      9  C   UNL     1      37.852  54.408  52.346  0.00  0.00    +0.000 A 
ATOM     10  C   UNL     1      38.125  50.980  51.453  0.00  0.00    +0.000 C 
ATOM     11  C   UNL     1      39.337  55.525  53.560  0.00  0.00    +0.000 A 
ENDROOT
BRANCH  11  14
ATOM     12  O   UNL     1      41.645  55.968  53.688  0.00  0.00    +0.000 OA
ATOM     13  N   UNL     1      40.404  56.322  55.597  0.00  0.00    +0.000 N 
ATOM     14  C   UNL     1      40.555  55.956  54.255  0.00  0.00    +0.000 C 
ATOM     15  H   UNL     1      39.475  56.156  55.974  0.00  0.00    +0.000 HD
BRANCH  13  16
ATOM     16  C   UNL     1      41.515  56.528  56.571  0.00  0.00    +0.000 C 
ATOM     17  C   UNL     1      41.017  56.870  57.989  0.00  0.00    +0.000 C 
ATOM     18  C   UNL     1      42.368  55.242  56.712  0.00  0.00    +0.000 C 
ATOM     19  C   UNL     1      42.457  57.638  56.074  0.00  0.00    +0.000 C 
ENDBRANCH  13  16
ENDBRANCH  11  14
BRANCH  10  20
ATOM     20  C   UNL     1      36.719  50.377  51.499  0.00  0.00    +0.000 C 
BRANCH  20  21
ATOM     21  C   UNL     1      36.290  49.495  50.301  0.00  0.00    +0.000 C 
BRANCH  21  22
ATOM     22  N   UNL     1      36.678  48.103  50.618  0.00  0.00    +0.000 NA
ATOM     23  H   UNL     1      36.981  47.629  49.765  0.00  0.00    +0.000 HD
ATOM     24  H   UNL     1      37.495  48.104  51.231  0.00  0.00    +0.000 HD
ENDBRANCH  21  22
BRANCH  21  25
ATOM     25  C   UNL     1      36.976  49.944  48.992  0.00  0.00    +0.000 C 
BRANCH  25  29
ATOM     26  F   UNL     1      37.220  50.040  46.128  0.00  0.00    +0.000 F 
ATOM     27  F   UNL     1      33.800  53.606  48.429  0.00  0.00    +0.000 F 
ATOM     28  F   UNL     1      34.030  53.492  45.703  0.00  0.00    +0.000 F 
ATOM     29  C   UNL     1      36.278  50.951  48.103  0.00  0.00    +0.000 A 
ATOM     30  C   UNL     1      36.394  50.922  46.707  0.00  0.00    +0.000 A 
ATOM     31  C   UNL     1      35.398  51.886  48.670  0.00  0.00    +0.000 A 
ATOM     32  C   UNL     1      34.651  52.738  47.862  0.00  0.00    +0.000 A 
ATOM     33  C   UNL     1      35.647  51.775  45.891  0.00  0.00    +0.000 A 
ATOM     34  C   UNL     1      34.765  52.676  46.477  0.00  0.00    +0.000 A 
ENDBRANCH  25  29
ENDBRANCH  21  25
ENDBRANCH  20  21
ENDBRANCH  10  20
TORSDOF 7
ENDMDL
MODEL 9
REMARK VINA RESULT:      -6.9     20.729     24.004
REMARK  Name = 10026124
REMARK  10 active torsions:
REMARK  status: ('A' for Active; 'I' for Inactive)
REMARK    1  A    between atoms: N_9  and  C_20
REMARK    2  A    between atoms: N_11  and  C_18
REMARK    3  A    between atoms: C_16  and  C_17
REMARK    4  A    between atoms: C_16  and  C_18
REMARK    5  A    between atoms: C_18  and  C_21
REMARK    6  A    between atoms: C_19  and  C_22
REMARK    7  A    between atoms: C_20  and  C_24
REMARK    8  A    between atoms: C_20  and  C_25
REMARK    9  A    between atoms: C_20  and  C_26
REMARK   10  A    between atoms: C_21  and  C_23
REMARK                            x       y       z     vdW  Elec       q    Type
REMARK                         _______ _______ _______ _____ _____    ______ ____
ROOT
ATOM      1  O   UNL     1      36.306  56.136  49.523  0.00  0.00    +0.000 OA
ATOM      2  N   UNL     1      36.441  54.483  51.091  0.00  0.00    +0.000 N 
ATOM      3  N   UNL     1      38.847  53.761  52.275  0.00  0.00    +0.000 N 
ATOM      4  N   UNL     1      38.563  51.610  51.976  0.00  0.00    +0.000 NA
ATOM      5  N   UNL     1      39.867  51.834  52.374  0.00  0.00    +0.000 NA
ATOM      6  C   UNL     1      37.001  55.397  52.101  0.00  0.00    +0.000 C 
ATOM      7  C   UNL     1      38.509  55.174  52.291  0.00  0.00    +0.000 C 
ATOM      8  C   UNL     1      36.542  53.072  51.471  0.00  0.00    +0.000 C 
ATOM      9  C   UNL     1      37.955  52.781  51.893  0.00  0.00    +0.000 A 
ATOM     10  C   UNL     1      36.048  54.977  49.853  0.00  0.00    +0.000 C 
ATOM     11  C   UNL     1      40.054  53.137  52.523  0.00  0.00    +0.000 A 
ENDROOT
BRANCH  11  14
ATOM     12  O   UNL     1      42.277  53.734  52.034  0.00  0.00    +0.000 OA
ATOM     13  N   UNL     1      41.467  54.326  54.109  0.00  0.00    +0.000 N 
ATOM     14  C   UNL     1      41.349  53.751  52.838  0.00  0.00    +0.000 C 
ATOM     15  H   UNL     1      40.666  54.169  54.715  0.00  0.00    +0.000 HD
BRANCH  13  16
ATOM     16  C   UNL     1      42.742  54.757  54.751  0.00  0.00    +0.000 C 
ATOM     17  C   UNL     1      43.296  56.071  54.166  0.00  0.00    +0.000 C 
ATOM     18  C   UNL     1      42.536  55.012  56.266  0.00  0.00    +0.000 C 
ATOM     19  C   UNL     1      43.802  53.650  54.623  0.00  0.00    +0.000 C 
ENDBRANCH  13  16
ENDBRANCH  11  14
BRANCH  10  20
ATOM     20  C   UNL     1      35.181  54.115  48.931  0.00  0.00    +0.000 C 
BRANCH  20  21
ATOM     21  C   UNL     1      35.884  53.447  47.724  0.00  0.00    +0.000 C 
BRANCH  21  22
ATOM     22  N   UNL     1      36.390  54.530  46.854  0.00  0.00    +0.000 NA
ATOM     23  H   UNL     1      35.744  55.321  46.880  0.00  0.00    +0.000 HD
ATOM     24  H   UNL     1      37.271  54.889  47.226  0.00  0.00    +0.000 HD
ENDBRANCH  21  22
BRANCH  21  25
ATOM     25  C   UNL     1      34.912  52.547  46.929  0.00  0.00    +0.000 C 
BRANCH  25  29
ATOM     26  F   UNL     1      34.046  50.448  48.693  0.00  0.00    +0.000 F 
ATOM     27  F   UNL     1      36.873  48.949  44.280  0.00  0.00    +0.000 F 
ATOM     28  F   UNL     1      35.868  47.047  45.974  0.00  0.00    +0.000 F 
ATOM     29  C   UNL     1      35.245  51.082  46.748  0.00  0.00    +0.000 A 
ATOM     30  C   UNL     1      34.756  50.093  47.612  0.00  0.00    +0.000 A 
ATOM     31  C   UNL     1      35.979  50.669  45.625  0.00  0.00    +0.000 A 
ATOM     32  C   UNL     1      36.189  49.316  45.373  0.00  0.00    +0.000 A 
ATOM     33  C   UNL     1      34.964  48.734  47.365  0.00  0.00    +0.000 A 
ATOM     34  C   UNL     1      35.674  48.351  46.232  0.00  0.00    +0.000 A 
ENDBRANCH  25  29
ENDBRANCH  21  25
ENDBRANCH  20  21
ENDBRANCH  10  20
TORSDOF 7
ENDMDL
