MODEL 1
REMARK VINA RESULT:      -8.0      0.000      0.000
REMARK  Name = 23646441
REMARK  7 active torsions:
REMARK  status: ('A' for Active; 'I' for Inactive)
REMARK    1  A    between atoms: N_11  and  C_19
REMARK    2  A    between atoms: C_12  and  C_18
REMARK    3  A    between atoms: C_16  and  C_17
REMARK    4  A    between atoms: C_17  and  C_19
REMARK    5  A    between atoms: C_19  and  C_21
REMARK    6  A    between atoms: C_20  and  C_22
REMARK    7  A    between atoms: C_21  and  C_23
REMARK                            x       y       z     vdW  Elec       q    Type
REMARK                         _______ _______ _______ _____ _____    ______ ____
ROOT
ATOM      1  O   UNL     1      52.832  69.975  42.731  0.00  0.00    +0.000 OA
ATOM      2  N   UNL     1      53.032  70.262  40.472  0.00  0.00    +0.000 N 
ATOM      3  N   UNL     1      54.907  70.668  38.438  0.00  0.00    +0.000 N 
ATOM      4  N   UNL     1      53.483  71.429  36.971  0.00  0.00    +0.000 NA
ATOM      5  N   UNL     1      54.750  71.516  36.445  0.00  0.00    +0.000 NA
ATOM      6  C   UNL     1      52.473  70.604  39.142  0.00  0.00    +0.000 C 
ATOM      7  C   UNL     1      54.261  69.461  40.470  0.00  0.00    +0.000 C 
ATOM      8  C   UNL     1      55.383  70.137  39.694  0.00  0.00    +0.000 C 
ATOM      9  C   UNL     1      53.583  70.918  38.179  0.00  0.00    +0.000 A 
ATOM     10  C   UNL     1      52.352  70.403  41.682  0.00  0.00    +0.000 C 
ATOM     11  C   UNL     1      51.605  69.467  38.598  0.00  0.00    +0.000 C 
ATOM     12  C   UNL     1      55.617  71.061  37.334  0.00  0.00    +0.000 A 
ENDROOT
BRANCH  12  16
ATOM     13  F   UNL     1      57.571  69.719  37.392  0.00  0.00    +0.000 F 
ATOM     14  F   UNL     1      57.746  71.771  38.078  0.00  0.00    +0.000 F 
ATOM     15  F   UNL     1      57.510  71.340  35.949  0.00  0.00    +0.000 F 
ATOM     16  C   UNL     1      57.093  70.978  37.190  0.00  0.00    +0.000 C 
ENDBRANCH  12  16
BRANCH  10  17
ATOM     17  C   UNL     1      50.991  71.092  41.660  0.00  0.00    +0.000 C 
BRANCH  17  18
ATOM     18  C   UNL     1      49.832  70.232  42.223  0.00  0.00    +0.000 C 
BRANCH  18  19
ATOM     19  N   UNL     1      50.000  68.842  41.748  0.00  0.00    +0.000 NA
ATOM     20  H   UNL     1      50.441  68.809  40.831  0.00  0.00    +0.000 HD
ATOM     21  H   UNL     1      49.095  68.379  41.663  0.00  0.00    +0.000 HD
ENDBRANCH  18  19
BRANCH  18  22
ATOM     22  C   UNL     1      48.454  70.797  41.793  0.00  0.00    +0.000 C 
BRANCH  22  25
ATOM     23  F   UNL     1      48.370  70.583  39.043  0.00  0.00    +0.000 F 
ATOM     24  F   UNL     1      48.189  75.669  40.948  0.00  0.00    +0.000 F 
ATOM     25  C   UNL     1      48.364  72.031  40.920  0.00  0.00    +0.000 A 
ATOM     26  C   UNL     1      48.329  71.832  39.531  0.00  0.00    +0.000 A 
ATOM     27  C   UNL     1      48.324  73.350  41.391  0.00  0.00    +0.000 A 
ATOM     28  C   UNL     1      48.240  74.412  40.487  0.00  0.00    +0.000 A 
ATOM     29  C   UNL     1      48.254  72.893  38.630  0.00  0.00    +0.000 A 
ATOM     30  C   UNL     1      48.206  74.195  39.113  0.00  0.00    +0.000 A 
ENDBRANCH  22  25
ENDBRANCH  18  22
ENDBRANCH  17  18
ENDBRANCH  10  17
TORSDOF 6
ENDMDL
MODEL 2
REMARK VINA RESULT:      -7.8      3.262      8.091
REMARK  Name = 23646441
REMARK  7 active torsions:
REMARK  status: ('A' for Active; 'I' for Inactive)
REMARK    1  A    between atoms: N_11  and  C_19
REMARK    2  A    between atoms: C_12  and  C_18
REMARK    3  A    between atoms: C_16  and  C_17
REMARK    4  A    between atoms: C_17  and  C_19
REMARK    5  A    between atoms: C_19  and  C_21
REMARK    6  A    between atoms: C_20  and  C_22
REMARK    7  A    between atoms: C_21  and  C_23
REMARK                            x       y       z     vdW  Elec       q    Type
REMARK                         _______ _______ _______ _____ _____    ______ ____
ROOT
ATOM      1  O   UNL     1      55.105  70.073  40.125  0.00  0.00    +0.000 OA
ATOM      2  N   UNL     1      52.912  70.344  40.713  0.00  0.00    +0.000 N 
ATOM      3  N   UNL     1      50.463  71.320  39.780  0.00  0.00    +0.000 N 
ATOM      4  N   UNL     1      49.529  71.491  41.745  0.00  0.00    +0.000 NA
ATOM      5  N   UNL     1      48.671  71.999  40.800  0.00  0.00    +0.000 NA
ATOM      6  C   UNL     1      51.829  70.429  41.721  0.00  0.00    +0.000 C 
ATOM      7  C   UNL     1      52.496  70.024  39.342  0.00  0.00    +0.000 C 
ATOM      8  C   UNL     1      51.485  71.027  38.802  0.00  0.00    +0.000 C 
ATOM      9  C   UNL     1      50.615  71.083  41.124  0.00  0.00    +0.000 A 
ATOM     10  C   UNL     1      54.273  70.274  41.010  0.00  0.00    +0.000 C 
ATOM     11  C   UNL     1      51.471  69.045  42.267  0.00  0.00    +0.000 C 
ATOM     12  C   UNL     1      49.235  71.904  39.608  0.00  0.00    +0.000 A 
ENDROOT
BRANCH  12  16
ATOM     13  F   UNL     1      49.469  73.225  37.653  0.00  0.00    +0.000 F 
ATOM     14  F   UNL     1      47.467  72.954  38.443  0.00  0.00    +0.000 F 
ATOM     15  F   UNL     1      48.489  71.298  37.450  0.00  0.00    +0.000 F 
ATOM     16  C   UNL     1      48.668  72.338  38.305  0.00  0.00    +0.000 C 
ENDBRANCH  12  16
BRANCH  10  17
ATOM     17  C   UNL     1      54.695  70.443  42.466  0.00  0.00    +0.000 C 
BRANCH  17  18
ATOM     18  C   UNL     1      55.313  71.825  42.794  0.00  0.00    +0.000 C 
BRANCH  18  19
ATOM     19  N   UNL     1      55.442  72.596  41.540  0.00  0.00    +0.000 NA
ATOM     20  H   UNL     1      56.126  72.180  40.911  0.00  0.00    +0.000 HD
ATOM     21  H   UNL     1      55.753  73.549  41.734  0.00  0.00    +0.000 HD
ENDBRANCH  18  19
BRANCH  18  22
ATOM     22  C   UNL     1      56.690  71.673  43.491  0.00  0.00    +0.000 C 
BRANCH  22  25
ATOM     23  F   UNL     1      58.588  73.667  43.309  0.00  0.00    +0.000 F 
ATOM     24  F   UNL     1      59.765  69.131  40.558  0.00  0.00    +0.000 F 
ATOM     25  C   UNL     1      57.949  71.474  42.675  0.00  0.00    +0.000 A 
ATOM     26  C   UNL     1      58.861  72.540  42.634  0.00  0.00    +0.000 A 
ATOM     27  C   UNL     1      58.267  70.316  41.952  0.00  0.00    +0.000 A 
ATOM     28  C   UNL     1      59.464  70.248  41.235  0.00  0.00    +0.000 A 
ATOM     29  C   UNL     1      60.051  72.475  41.910  0.00  0.00    +0.000 A 
ATOM     30  C   UNL     1      60.356  71.316  41.206  0.00  0.00    +0.000 A 
ENDBRANCH  22  25
ENDBRANCH  18  22
ENDBRANCH  17  18
ENDBRANCH  10  17
TORSDOF 6
ENDMDL
MODEL 3
REMARK VINA RESULT:      -7.6      3.157      8.599
REMARK  Name = 23646441
REMARK  7 active torsions:
REMARK  status: ('A' for Active; 'I' for Inactive)
REMARK    1  A    between atoms: N_11  and  C_19
REMARK    2  A    between atoms: C_12  and  C_18
REMARK    3  A    between atoms: C_16  and  C_17
REMARK    4  A    between atoms: C_17  and  C_19
REMARK    5  A    between atoms: C_19  and  C_21
REMARK    6  A    between atoms: C_20  and  C_22
REMARK    7  A    between atoms: C_21  and  C_23
REMARK                            x       y       z     vdW  Elec       q    Type
REMARK                         _______ _______ _______ _____ _____    ______ ____
ROOT
ATOM      1  O   UNL     1      54.704  71.717  36.457  0.00  0.00    +0.000 OA
ATOM      2  N   UNL     1      53.182  70.997  38.004  0.00  0.00    +0.000 N 
ATOM      3  N   UNL     1      50.706  71.620  39.145  0.00  0.00    +0.000 N 
ATOM      4  N   UNL     1      50.964  70.381  40.923  0.00  0.00    +0.000 NA
ATOM      5  N   UNL     1      49.786  71.080  41.036  0.00  0.00    +0.000 NA
ATOM      6  C   UNL     1      52.803  70.195  39.191  0.00  0.00    +0.000 C 
ATOM      7  C   UNL     1      52.082  71.415  37.127  0.00  0.00    +0.000 C 
ATOM      8  C   UNL     1      51.032  72.226  37.875  0.00  0.00    +0.000 C 
ATOM      9  C   UNL     1      51.520  70.713  39.777  0.00  0.00    +0.000 A 
ATOM     10  C   UNL     1      54.484  71.144  37.524  0.00  0.00    +0.000 C 
ATOM     11  C   UNL     1      52.663  68.713  38.836  0.00  0.00    +0.000 C 
ATOM     12  C   UNL     1      49.629  71.838  39.963  0.00  0.00    +0.000 A 
ENDROOT
BRANCH  12  16
ATOM     13  F   UNL     1      47.781  72.382  38.580  0.00  0.00    +0.000 F 
ATOM     14  F   UNL     1      48.924  74.026  39.415  0.00  0.00    +0.000 F 
ATOM     15  F   UNL     1      47.617  72.834  40.697  0.00  0.00    +0.000 F 
ATOM     16  C   UNL     1      48.503  72.762  39.670  0.00  0.00    +0.000 C 
ENDBRANCH  12  16
BRANCH  10  17
ATOM     17  C   UNL     1      55.621  70.561  38.356  0.00  0.00    +0.000 C 
BRANCH  17  18
ATOM     18  C   UNL     1      56.105  71.480  39.505  0.00  0.00    +0.000 C 
BRANCH  18  19
ATOM     19  N   UNL     1      56.852  72.614  38.921  0.00  0.00    +0.000 NA
ATOM     20  H   UNL     1      57.025  73.345  39.609  0.00  0.00    +0.000 HD
ATOM     21  H   UNL     1      56.324  73.038  38.159  0.00  0.00    +0.000 HD
ENDBRANCH  18  19
BRANCH  18  22
ATOM     22  C   UNL     1      56.989  70.701  40.513  0.00  0.00    +0.000 C 
BRANCH  22  25
ATOM     23  F   UNL     1      58.140  72.158  42.554  0.00  0.00    +0.000 F 
ATOM     24  F   UNL     1      61.635  70.238  38.861  0.00  0.00    +0.000 F 
ATOM     25  C   UNL     1      58.486  70.923  40.560  0.00  0.00    +0.000 A 
ATOM     26  C   UNL     1      58.988  71.678  41.631  0.00  0.00    +0.000 A 
ATOM     27  C   UNL     1      59.402  70.444  39.614  0.00  0.00    +0.000 A 
ATOM     28  C   UNL     1      60.765  70.713  39.764  0.00  0.00    +0.000 A 
ATOM     29  C   UNL     1      60.347  71.953  41.775  0.00  0.00    +0.000 A 
ATOM     30  C   UNL     1      61.244  71.463  40.833  0.00  0.00    +0.000 A 
ENDBRANCH  22  25
ENDBRANCH  18  22
ENDBRANCH  17  18
ENDBRANCH  10  17
TORSDOF 6
ENDMDL
MODEL 4
REMARK VINA RESULT:      -7.6      3.127      8.043
REMARK  Name = 23646441
REMARK  7 active torsions:
REMARK  status: ('A' for Active; 'I' for Inactive)
REMARK    1  A    between atoms: N_11  and  C_19
REMARK    2  A    between atoms: C_12  and  C_18
REMARK    3  A    between atoms: C_16  and  C_17
REMARK    4  A    between atoms: C_17  and  C_19
REMARK    5  A    between atoms: C_19  and  C_21
REMARK    6  A    between atoms: C_20  and  C_22
REMARK    7  A    between atoms: C_21  and  C_23
REMARK                            x       y       z     vdW  Elec       q    Type
REMARK                         _______ _______ _______ _____ _____    ______ ____
ROOT
ATOM      1  O   UNL     1      54.594  71.496  36.376  0.00  0.00    +0.000 OA
ATOM      2  N   UNL     1      53.090  70.876  37.984  0.00  0.00    +0.000 N 
ATOM      3  N   UNL     1      50.671  71.620  39.172  0.00  0.00    +0.000 N 
ATOM      4  N   UNL     1      50.934  70.425  40.979  0.00  0.00    +0.000 NA
ATOM      5  N   UNL     1      49.785  71.169  41.102  0.00  0.00    +0.000 NA
ATOM      6  C   UNL     1      52.717  70.123  39.205  0.00  0.00    +0.000 C 
ATOM      7  C   UNL     1      51.982  71.307  37.125  0.00  0.00    +0.000 C 
ATOM      8  C   UNL     1      50.982  72.177  37.876  0.00  0.00    +0.000 C 
ATOM      9  C   UNL     1      51.469  70.703  39.809  0.00  0.00    +0.000 A 
ATOM     10  C   UNL     1      54.383  70.962  37.465  0.00  0.00    +0.000 C 
ATOM     11  C   UNL     1      52.516  68.637  38.898  0.00  0.00    +0.000 C 
ATOM     12  C   UNL     1      49.625  71.900  40.012  0.00  0.00    +0.000 A 
ENDROOT
BRANCH  12  16
ATOM     13  F   UNL     1      47.741  72.454  38.683  0.00  0.00    +0.000 F 
ATOM     14  F   UNL     1      48.983  74.087  39.387  0.00  0.00    +0.000 F 
ATOM     15  F   UNL     1      47.689  73.012  40.780  0.00  0.00    +0.000 F 
ATOM     16  C   UNL     1      48.525  72.855  39.722  0.00  0.00    +0.000 C 
ENDBRANCH  12  16
BRANCH  10  17
ATOM     17  C   UNL     1      55.521  70.363  38.284  0.00  0.00    +0.000 C 
BRANCH  17  18
ATOM     18  C   UNL     1      56.796  71.242  38.342  0.00  0.00    +0.000 C 
BRANCH  18  19
ATOM     19  N   UNL     1      57.379  71.320  36.986  0.00  0.00    +0.000 NA
ATOM     20  H   UNL     1      57.259  72.245  36.578  0.00  0.00    +0.000 HD
ATOM     21  H   UNL     1      56.925  70.655  36.360  0.00  0.00    +0.000 HD
ENDBRANCH  18  19
BRANCH  18  22
ATOM     22  C   UNL     1      57.826  70.672  39.352  0.00  0.00    +0.000 C 
BRANCH  22  25
ATOM     23  F   UNL     1      56.127  70.440  41.513  0.00  0.00    +0.000 F 
ATOM     24  F   UNL     1      60.452  73.628  42.334  0.00  0.00    +0.000 F 
ATOM     25  C   UNL     1      58.117  71.396  40.648  0.00  0.00    +0.000 A 
ATOM     26  C   UNL     1      57.200  71.226  41.698  0.00  0.00    +0.000 A 
ATOM     27  C   UNL     1      59.221  72.229  40.877  0.00  0.00    +0.000 A 
ATOM     28  C   UNL     1      59.385  72.844  42.121  0.00  0.00    +0.000 A 
ATOM     29  C   UNL     1      57.360  71.848  42.935  0.00  0.00    +0.000 A 
ATOM     30  C   UNL     1      58.465  72.663  43.149  0.00  0.00    +0.000 A 
ENDBRANCH  22  25
ENDBRANCH  18  22
ENDBRANCH  17  18
ENDBRANCH  10  17
TORSDOF 6
ENDMDL
MODEL 5
REMARK VINA RESULT:      -7.6     19.732     22.727
REMARK  Name = 23646441
REMARK  7 active torsions:
REMARK  status: ('A' for Active; 'I' for Inactive)
REMARK    1  A    between atoms: N_11  and  C_19
REMARK    2  A    between atoms: C_12  and  C_18
REMARK    3  A    between atoms: C_16  and  C_17
REMARK    4  A    between atoms: C_17  and  C_19
REMARK    5  A    between atoms: C_19  and  C_21
REMARK    6  A    between atoms: C_20  and  C_22
REMARK    7  A    between atoms: C_21  and  C_23
REMARK                            x       y       z     vdW  Elec       q    Type
REMARK                         _______ _______ _______ _____ _____    ______ ____
ROOT
ATOM      1  O   UNL     1      49.297  49.860  36.462  0.00  0.00    +0.000 OA
ATOM      2  N   UNL     1      47.785  51.327  35.574  0.00  0.00    +0.000 N 
ATOM      3  N   UNL     1      45.062  51.962  35.531  0.00  0.00    +0.000 N 
ATOM      4  N   UNL     1      45.139  53.147  33.701  0.00  0.00    +0.000 NA
ATOM      5  N   UNL     1      43.830  53.043  34.108  0.00  0.00    +0.000 NA
ATOM      6  C   UNL     1      47.377  52.335  34.566  0.00  0.00    +0.000 C 
ATOM      7  C   UNL     1      47.039  51.336  36.837  0.00  0.00    +0.000 C 
ATOM      8  C   UNL     1      45.544  51.144  36.620  0.00  0.00    +0.000 C 
ATOM      9  C   UNL     1      45.882  52.489  34.565  0.00  0.00    +0.000 A 
ATOM     10  C   UNL     1      48.963  50.581  35.523  0.00  0.00    +0.000 C 
ATOM     11  C   UNL     1      48.048  53.684  34.830  0.00  0.00    +0.000 C 
ATOM     12  C   UNL     1      43.778  52.320  35.214  0.00  0.00    +0.000 A 
ENDROOT
BRANCH  12  16
ATOM     13  F   UNL     1      41.423  52.455  35.454  0.00  0.00    +0.000 F 
ATOM     14  F   UNL     1      42.612  52.405  37.268  0.00  0.00    +0.000 F 
ATOM     15  F   UNL     1      42.388  50.604  36.052  0.00  0.00    +0.000 F 
ATOM     16  C   UNL     1      42.568  51.949  35.991  0.00  0.00    +0.000 C 
ENDBRANCH  12  16
BRANCH  10  17
ATOM     17  C   UNL     1      49.828  50.698  34.272  0.00  0.00    +0.000 C 
BRANCH  17  18
ATOM     18  C   UNL     1      51.258  51.234  34.534  0.00  0.00    +0.000 C 
BRANCH  18  19
ATOM     19  N   UNL     1      51.276  52.686  34.262  0.00  0.00    +0.000 NA
ATOM     20  H   UNL     1      51.695  53.208  35.031  0.00  0.00    +0.000 HD
ATOM     21  H   UNL     1      50.328  53.042  34.140  0.00  0.00    +0.000 HD
ENDBRANCH  18  19
BRANCH  18  22
ATOM     22  C   UNL     1      52.302  50.497  33.656  0.00  0.00    +0.000 C 
BRANCH  22  25
ATOM     23  F   UNL     1      52.290  47.747  33.426  0.00  0.00    +0.000 F 
ATOM     24  F   UNL     1      56.444  49.787  36.276  0.00  0.00    +0.000 F 
ATOM     25  C   UNL     1      53.391  49.660  34.292  0.00  0.00    +0.000 A 
ATOM     26  C   UNL     1      53.308  48.268  34.129  0.00  0.00    +0.000 A 
ATOM     27  C   UNL     1      54.465  50.165  35.037  0.00  0.00    +0.000 A 
ATOM     28  C   UNL     1      55.413  49.292  35.576  0.00  0.00    +0.000 A 
ATOM     29  C   UNL     1      54.250  47.397  34.675  0.00  0.00    +0.000 A 
ATOM     30  C   UNL     1      55.314  47.915  35.403  0.00  0.00    +0.000 A 
ENDBRANCH  22  25
ENDBRANCH  18  22
ENDBRANCH  17  18
ENDBRANCH  10  17
TORSDOF 6
ENDMDL
MODEL 6
REMARK VINA RESULT:      -7.1     19.371     20.931
REMARK  Name = 23646441
REMARK  7 active torsions:
REMARK  status: ('A' for Active; 'I' for Inactive)
REMARK    1  A    between atoms: N_11  and  C_19
REMARK    2  A    between atoms: C_12  and  C_18
REMARK    3  A    between atoms: C_16  and  C_17
REMARK    4  A    between atoms: C_17  and  C_19
REMARK    5  A    between atoms: C_19  and  C_21
REMARK    6  A    between atoms: C_20  and  C_22
REMARK    7  A    between atoms: C_21  and  C_23
REMARK                            x       y       z     vdW  Elec       q    Type
REMARK                         _______ _______ _______ _____ _____    ______ ____
ROOT
ATOM      1  O   UNL     1      48.961  52.183  38.162  0.00  0.00    +0.000 OA
ATOM      2  N   UNL     1      50.218  51.488  36.382  0.00  0.00    +0.000 N 
ATOM      3  N   UNL     1      52.707  50.412  35.701  0.00  0.00    +0.000 N 
ATOM      4  N   UNL     1      52.628  50.983  33.597  0.00  0.00    +0.000 NA
ATOM      5  N   UNL     1      53.855  50.423  33.859  0.00  0.00    +0.000 NA
ATOM      6  C   UNL     1      50.529  51.458  34.933  0.00  0.00    +0.000 C 
ATOM      7  C   UNL     1      50.755  50.382  37.183  0.00  0.00    +0.000 C 
ATOM      8  C   UNL     1      52.270  50.281  37.072  0.00  0.00    +0.000 C 
ATOM      9  C   UNL     1      51.936  50.977  34.716  0.00  0.00    +0.000 A 
ATOM     10  C   UNL     1      49.255  52.308  36.973  0.00  0.00    +0.000 C 
ATOM     11  C   UNL     1      49.542  50.568  34.174  0.00  0.00    +0.000 C 
ATOM     12  C   UNL     1      53.910  50.081  35.136  0.00  0.00    +0.000 A 
ENDROOT
BRANCH  12  16
ATOM     13  F   UNL     1      56.138  49.275  35.052  0.00  0.00    +0.000 F 
ATOM     14  F   UNL     1      54.742  48.223  36.337  0.00  0.00    +0.000 F 
ATOM     15  F   UNL     1      55.475  50.202  36.900  0.00  0.00    +0.000 F 
ATOM     16  C   UNL     1      55.049  49.452  35.851  0.00  0.00    +0.000 C 
ENDBRANCH  12  16
BRANCH  10  17
ATOM     17  C   UNL     1      48.573  53.353  36.096  0.00  0.00    +0.000 C 
BRANCH  17  18
ATOM     18  C   UNL     1      47.025  53.287  36.114  0.00  0.00    +0.000 C 
BRANCH  18  19
ATOM     19  N   UNL     1      46.543  53.826  37.403  0.00  0.00    +0.000 NA
ATOM     20  H   UNL     1      45.969  53.149  37.902  0.00  0.00    +0.000 HD
ATOM     21  H   UNL     1      45.968  54.655  37.254  0.00  0.00    +0.000 HD
ENDBRANCH  18  19
BRANCH  18  22
ATOM     22  C   UNL     1      46.523  51.835  35.901  0.00  0.00    +0.000 C 
BRANCH  22  25
ATOM     23  F   UNL     1      45.510  52.154  33.355  0.00  0.00    +0.000 F 
ATOM     24  F   UNL     1      41.898  50.503  37.065  0.00  0.00    +0.000 F 
ATOM     25  C   UNL     1      45.064  51.559  35.606  0.00  0.00    +0.000 A 
ATOM     26  C   UNL     1      44.630  51.749  34.285  0.00  0.00    +0.000 A 
ATOM     27  C   UNL     1      44.116  51.141  36.550  0.00  0.00    +0.000 A 
ATOM     28  C   UNL     1      42.794  50.916  36.158  0.00  0.00    +0.000 A 
ATOM     29  C   UNL     1      43.309  51.532  33.897  0.00  0.00    +0.000 A 
ATOM     30  C   UNL     1      42.383  51.109  34.842  0.00  0.00    +0.000 A 
ENDBRANCH  22  25
ENDBRANCH  18  22
ENDBRANCH  17  18
ENDBRANCH  10  17
TORSDOF 6
ENDMDL
MODEL 7
REMARK VINA RESULT:      -7.1     21.068     23.783
REMARK  Name = 23646441
REMARK  7 active torsions:
REMARK  status: ('A' for Active; 'I' for Inactive)
REMARK    1  A    between atoms: N_11  and  C_19
REMARK    2  A    between atoms: C_12  and  C_18
REMARK    3  A    between atoms: C_16  and  C_17
REMARK    4  A    between atoms: C_17  and  C_19
REMARK    5  A    between atoms: C_19  and  C_21
REMARK    6  A    between atoms: C_20  and  C_22
REMARK    7  A    between atoms: C_21  and  C_23
REMARK                            x       y       z     vdW  Elec       q    Type
REMARK                         _______ _______ _______ _____ _____    ______ ____
ROOT
ATOM      1  O   UNL     1      35.831  58.221  46.513  0.00  0.00    +0.000 OA
ATOM      2  N   UNL     1      36.145  57.231  44.476  0.00  0.00    +0.000 N 
ATOM      3  N   UNL     1      35.730  57.599  41.736  0.00  0.00    +0.000 N 
ATOM      4  N   UNL     1      35.934  55.496  41.195  0.00  0.00    +0.000 NA
ATOM      5  N   UNL     1      35.582  56.210  40.075  0.00  0.00    +0.000 NA
ATOM      6  C   UNL     1      36.399  56.045  43.623  0.00  0.00    +0.000 C 
ATOM      7  C   UNL     1      36.457  58.535  43.881  0.00  0.00    +0.000 C 
ATOM      8  C   UNL     1      35.694  58.769  42.584  0.00  0.00    +0.000 C 
ATOM      9  C   UNL     1      36.019  56.341  42.200  0.00  0.00    +0.000 A 
ATOM     10  C   UNL     1      35.902  57.187  45.850  0.00  0.00    +0.000 C 
ATOM     11  C   UNL     1      37.865  55.612  43.702  0.00  0.00    +0.000 C 
ATOM     12  C   UNL     1      35.452  57.485  40.399  0.00  0.00    +0.000 A 
ENDROOT
BRANCH  12  16
ATOM     13  F   UNL     1      35.035  58.243  38.191  0.00  0.00    +0.000 F 
ATOM     14  F   UNL     1      35.950  59.643  39.573  0.00  0.00    +0.000 F 
ATOM     15  F   UNL     1      33.844  59.104  39.789  0.00  0.00    +0.000 F 
ATOM     16  C   UNL     1      35.075  58.608  39.502  0.00  0.00    +0.000 C 
ENDBRANCH  12  16
BRANCH  10  17
ATOM     17  C   UNL     1      35.742  55.818  46.502  0.00  0.00    +0.000 C 
BRANCH  17  18
ATOM     18  C   UNL     1      34.278  55.315  46.576  0.00  0.00    +0.000 C 
BRANCH  18  19
ATOM     19  N   UNL     1      33.590  56.021  47.677  0.00  0.00    +0.000 NA
ATOM     20  H   UNL     1      33.497  57.017  47.485  0.00  0.00    +0.000 HD
ATOM     21  H   UNL     1      34.115  55.930  48.547  0.00  0.00    +0.000 HD
ENDBRANCH  18  19
BRANCH  18  22
ATOM     22  C   UNL     1      34.223  53.779  46.787  0.00  0.00    +0.000 C 
BRANCH  22  25
ATOM     23  F   UNL     1      34.010  54.140  44.061  0.00  0.00    +0.000 F 
ATOM     24  F   UNL     1      37.054  49.901  45.577  0.00  0.00    +0.000 F 
ATOM     25  C   UNL     1      34.919  52.842  45.824  0.00  0.00    +0.000 A 
ATOM     26  C   UNL     1      34.757  53.096  44.453  0.00  0.00    +0.000 A 
ATOM     27  C   UNL     1      35.701  51.740  46.194  0.00  0.00    +0.000 A 
ATOM     28  C   UNL     1      36.297  50.945  45.211  0.00  0.00    +0.000 A 
ATOM     29  C   UNL     1      35.344  52.297  43.473  0.00  0.00    +0.000 A 
ATOM     30  C   UNL     1      36.124  51.213  43.857  0.00  0.00    +0.000 A 
ENDBRANCH  22  25
ENDBRANCH  18  22
ENDBRANCH  17  18
ENDBRANCH  10  17
TORSDOF 6
ENDMDL
MODEL 8
REMARK VINA RESULT:      -6.9      2.923      7.602
REMARK  Name = 23646441
REMARK  7 active torsions:
REMARK  status: ('A' for Active; 'I' for Inactive)
REMARK    1  A    between atoms: N_11  and  C_19
REMARK    2  A    between atoms: C_12  and  C_18
REMARK    3  A    between atoms: C_16  and  C_17
REMARK    4  A    between atoms: C_17  and  C_19
REMARK    5  A    between atoms: C_19  and  C_21
REMARK    6  A    between atoms: C_20  and  C_22
REMARK    7  A    between atoms: C_21  and  C_23
REMARK                            x       y       z     vdW  Elec       q    Type
REMARK                         _______ _______ _______ _____ _____    ______ ____
ROOT
ATOM      1  O   UNL     1      54.693  71.491  36.463  0.00  0.00    +0.000 OA
ATOM      2  N   UNL     1      53.224  70.851  38.094  0.00  0.00    +0.000 N 
ATOM      3  N   UNL     1      50.749  71.484  39.231  0.00  0.00    +0.000 N 
ATOM      4  N   UNL     1      51.081  70.406  41.099  0.00  0.00    +0.000 NA
ATOM      5  N   UNL     1      49.882  71.072  41.178  0.00  0.00    +0.000 NA
ATOM      6  C   UNL     1      52.895  70.138  39.351  0.00  0.00    +0.000 C 
ATOM      7  C   UNL     1      52.095  71.158  37.209  0.00  0.00    +0.000 C 
ATOM      8  C   UNL     1      51.031  71.993  37.909  0.00  0.00    +0.000 C 
ATOM      9  C   UNL     1      51.605  70.660  39.919  0.00  0.00    +0.000 A 
ATOM     10  C   UNL     1      54.512  71.001  37.577  0.00  0.00    +0.000 C 
ATOM     11  C   UNL     1      52.801  68.628  39.122  0.00  0.00    +0.000 C 
ATOM     12  C   UNL     1      49.679  71.732  40.050  0.00  0.00    +0.000 A 
ENDROOT
BRANCH  12  16
ATOM     13  F   UNL     1      47.772  72.082  38.685  0.00  0.00    +0.000 F 
ATOM     14  F   UNL     1      48.890  73.834  39.309  0.00  0.00    +0.000 F 
ATOM     15  F   UNL     1      47.663  72.743  40.750  0.00  0.00    +0.000 F 
ATOM     16  C   UNL     1      48.517  72.591  39.705  0.00  0.00    +0.000 C 
ENDBRANCH  12  16
BRANCH  10  17
ATOM     17  C   UNL     1      55.683  70.528  38.432  0.00  0.00    +0.000 C 
BRANCH  17  18
ATOM     18  C   UNL     1      56.187  71.573  39.458  0.00  0.00    +0.000 C 
BRANCH  18  19
ATOM     19  N   UNL     1      56.889  72.651  38.731  0.00  0.00    +0.000 NA
ATOM     20  H   UNL     1      56.427  73.550  38.852  0.00  0.00    +0.000 HD
ATOM     21  H   UNL     1      56.909  72.456  37.729  0.00  0.00    +0.000 HD
ENDBRANCH  18  19
BRANCH  18  22
ATOM     22  C   UNL     1      57.120  70.921  40.511  0.00  0.00    +0.000 C 
BRANCH  22  25
ATOM     23  F   UNL     1      58.703  68.919  41.558  0.00  0.00    +0.000 F 
ATOM     24  F   UNL     1      53.612  69.041  43.458  0.00  0.00    +0.000 F 
ATOM     25  C   UNL     1      56.569  69.952  41.535  0.00  0.00    +0.000 A 
ATOM     26  C   UNL     1      57.441  68.962  42.015  0.00  0.00    +0.000 A 
ATOM     27  C   UNL     1      55.259  69.962  42.032  0.00  0.00    +0.000 A 
ATOM     28  C   UNL     1      54.864  69.015  42.980  0.00  0.00    +0.000 A 
ATOM     29  C   UNL     1      57.044  68.012  42.954  0.00  0.00    +0.000 A 
ATOM     30  C   UNL     1      55.743  68.041  43.443  0.00  0.00    +0.000 A 
ENDBRANCH  22  25
ENDBRANCH  18  22
ENDBRANCH  17  18
ENDBRANCH  10  17
TORSDOF 6
ENDMDL
MODEL 9
REMARK VINA RESULT:      -6.8      2.716      3.649
REMARK  Name = 23646441
REMARK  7 active torsions:
REMARK  status: ('A' for Active; 'I' for Inactive)
REMARK    1  A    between atoms: N_11  and  C_19
REMARK    2  A    between atoms: C_12  and  C_18
REMARK    3  A    between atoms: C_16  and  C_17
REMARK    4  A    between atoms: C_17  and  C_19
REMARK    5  A    between atoms: C_19  and  C_21
REMARK    6  A    between atoms: C_20  and  C_22
REMARK    7  A    between atoms: C_21  and  C_23
REMARK                            x       y       z     vdW  Elec       q    Type
REMARK                         _______ _______ _______ _____ _____    ______ ____
ROOT
ATOM      1  O   UNL     1      52.862  71.451  42.374  0.00  0.00    +0.000 OA
ATOM      2  N   UNL     1      54.722  70.176  41.994  0.00  0.00    +0.000 N 
ATOM      3  N   UNL     1      57.455  70.342  41.428  0.00  0.00    +0.000 N 
ATOM      4  N   UNL     1      57.651  68.303  40.677  0.00  0.00    +0.000 NA
ATOM      5  N   UNL     1      58.851  68.953  40.514  0.00  0.00    +0.000 NA
ATOM      6  C   UNL     1      55.380  68.900  41.629  0.00  0.00    +0.000 C 
ATOM      7  C   UNL     1      55.543  71.138  42.739  0.00  0.00    +0.000 C 
ATOM      8  C   UNL     1      56.812  71.511  41.983  0.00  0.00    +0.000 C 
ATOM      9  C   UNL     1      56.807  69.149  41.229  0.00  0.00    +0.000 A 
ATOM     10  C   UNL     1      53.348  70.411  41.930  0.00  0.00    +0.000 C 
ATOM     11  C   UNL     1      55.321  67.896  42.782  0.00  0.00    +0.000 C 
ATOM     12  C   UNL     1      58.735  70.192  40.962  0.00  0.00    +0.000 A 
ENDROOT
BRANCH  12  16
ATOM     13  F   UNL     1      60.846  70.939  40.182  0.00  0.00    +0.000 F 
ATOM     14  F   UNL     1      60.287  71.462  42.213  0.00  0.00    +0.000 F 
ATOM     15  F   UNL     1      59.313  72.439  40.520  0.00  0.00    +0.000 F 
ATOM     16  C   UNL     1      59.780  71.247  40.973  0.00  0.00    +0.000 C 
ENDBRANCH  12  16
BRANCH  10  17
ATOM     17  C   UNL     1      52.469  69.334  41.303  0.00  0.00    +0.000 C 
BRANCH  17  18
ATOM     18  C   UNL     1      51.916  69.699  39.902  0.00  0.00    +0.000 C 
BRANCH  18  19
ATOM     19  N   UNL     1      52.497  70.992  39.485  0.00  0.00    +0.000 NA
ATOM     20  H   UNL     1      52.796  70.974  38.512  0.00  0.00    +0.000 HD
ATOM     21  H   UNL     1      53.319  71.215  40.048  0.00  0.00    +0.000 HD
ENDBRANCH  18  19
BRANCH  18  22
ATOM     22  C   UNL     1      50.366  69.770  39.912  0.00  0.00    +0.000 C 
BRANCH  22  25
ATOM     23  F   UNL     1      49.819  70.961  37.485  0.00  0.00    +0.000 F 
ATOM     24  F   UNL     1      48.159  73.764  41.836  0.00  0.00    +0.000 F 
ATOM     25  C   UNL     1      49.655  71.104  39.846  0.00  0.00    +0.000 A 
ATOM     26  C   UNL     1      49.418  71.641  38.571  0.00  0.00    +0.000 A 
ATOM     27  C   UNL     1      49.227  71.846  40.955  0.00  0.00    +0.000 A 
ATOM     28  C   UNL     1      48.577  73.068  40.768  0.00  0.00    +0.000 A 
ATOM     29  C   UNL     1      48.777  72.865  38.386  0.00  0.00    +0.000 A 
ATOM     30  C   UNL     1      48.350  73.584  39.496  0.00  0.00    +0.000 A 
ENDBRANCH  22  25
ENDBRANCH  18  22
ENDBRANCH  17  18
ENDBRANCH  10  17
TORSDOF 6
ENDMDL
