MODEL 1
REMARK VINA RESULT:      -8.3      0.000      0.000
REMARK  Name = 24777440
REMARK  8 active torsions:
REMARK  status: ('A' for Active; 'I' for Inactive)
REMARK    1  A    between atoms: N_12  and  C_22
REMARK    2  A    between atoms: C_13  and  C_18
REMARK    3  A    between atoms: C_14  and  C_19
REMARK    4  A    between atoms: C_17  and  C_21
REMARK    5  A    between atoms: C_20  and  C_24
REMARK    6  A    between atoms: C_21  and  C_22
REMARK    7  A    between atoms: C_22  and  C_23
REMARK    8  A    between atoms: C_23  and  C_25
REMARK                            x       y       z     vdW  Elec       q    Type
REMARK                         _______ _______ _______ _____ _____    ______ ____
ROOT
ATOM      1  O   UNL     1      46.100  53.488  36.752  0.00  0.00    +0.000 OA
ATOM      2  N   UNL     1      47.575  52.955  35.060  0.00  0.00    +0.000 N 
ATOM      3  N   UNL     1      50.247  52.270  34.675  0.00  0.00    +0.000 N 
ATOM      4  N   UNL     1      51.088  54.180  35.308  0.00  0.00    +0.000 NA
ATOM      5  N   UNL     1      52.120  53.320  35.014  0.00  0.00    +0.000 NA
ATOM      6  C   UNL     1      49.226  51.297  34.327  0.00  0.00    +0.000 C 
ATOM      7  C   UNL     1      48.541  54.072  35.288  0.00  0.00    +0.000 C 
ATOM      8  C   UNL     1      47.950  52.057  33.957  0.00  0.00    +0.000 C 
ATOM      9  C   UNL     1      49.953  53.543  35.110  0.00  0.00    +0.000 A 
ATOM     10  C   UNL     1      46.397  52.796  35.782  0.00  0.00    +0.000 C 
ATOM     11  C   UNL     1      48.991  50.316  35.480  0.00  0.00    +0.000 C 
ATOM     12  C   UNL     1      48.481  54.867  36.598  0.00  0.00    +0.000 C 
ATOM     13  C   UNL     1      51.613  52.163  34.623  0.00  0.00    +0.000 A 
ENDROOT
BRANCH  13  17
ATOM     14  F   UNL     1      52.107  49.864  34.972  0.00  0.00    +0.000 F 
ATOM     15  F   UNL     1      53.715  51.141  34.264  0.00  0.00    +0.000 F 
ATOM     16  F   UNL     1      52.078  50.586  32.927  0.00  0.00    +0.000 F 
ATOM     17  C   UNL     1      52.370  50.955  34.198  0.00  0.00    +0.000 C 
ENDBRANCH  13  17
BRANCH  10  18
ATOM     18  C   UNL     1      45.468  51.664  35.350  0.00  0.00    +0.000 C 
BRANCH  18  19
ATOM     19  C   UNL     1      44.145  52.167  34.757  0.00  0.00    +0.000 C 
BRANCH  19  20
ATOM     20  N   UNL     1      44.443  53.315  33.877  0.00  0.00    +0.000 NA
ATOM     21  H   UNL     1      45.141  53.911  34.326  0.00  0.00    +0.000 HD
ATOM     22  H   UNL     1      43.613  53.899  33.773  0.00  0.00    +0.000 HD
ENDBRANCH  19  20
BRANCH  19  23
ATOM     23  C   UNL     1      43.163  52.580  35.882  0.00  0.00    +0.000 C 
BRANCH  23  27
ATOM     24  F   UNL     1      43.199  50.196  37.425  0.00  0.00    +0.000 F 
ATOM     25  F   UNL     1      38.524  51.392  34.892  0.00  0.00    +0.000 F 
ATOM     26  F   UNL     1      38.726  49.143  36.435  0.00  0.00    +0.000 F 
ATOM     27  C   UNL     1      41.969  51.670  36.027  0.00  0.00    +0.000 A 
ATOM     28  C   UNL     1      42.050  50.508  36.802  0.00  0.00    +0.000 A 
ATOM     29  C   UNL     1      40.759  51.960  35.364  0.00  0.00    +0.000 A 
ATOM     30  C   UNL     1      39.676  51.102  35.514  0.00  0.00    +0.000 A 
ATOM     31  C   UNL     1      40.967  49.652  36.947  0.00  0.00    +0.000 A 
ATOM     32  C   UNL     1      39.775  49.959  36.299  0.00  0.00    +0.000 A 
ENDBRANCH  23  27
ENDBRANCH  19  23
ENDBRANCH  18  19
ENDBRANCH  10  18
TORSDOF 6
ENDMDL
MODEL 2
REMARK VINA RESULT:      -8.1      3.008      9.816
REMARK  Name = 24777440
REMARK  8 active torsions:
REMARK  status: ('A' for Active; 'I' for Inactive)
REMARK    1  A    between atoms: N_12  and  C_22
REMARK    2  A    between atoms: C_13  and  C_18
REMARK    3  A    between atoms: C_14  and  C_19
REMARK    4  A    between atoms: C_17  and  C_21
REMARK    5  A    between atoms: C_20  and  C_24
REMARK    6  A    between atoms: C_21  and  C_22
REMARK    7  A    between atoms: C_22  and  C_23
REMARK    8  A    between atoms: C_23  and  C_25
REMARK                            x       y       z     vdW  Elec       q    Type
REMARK                         _______ _______ _______ _____ _____    ______ ____
ROOT
ATOM      1  O   UNL     1      44.105  53.618  37.119  0.00  0.00    +0.000 OA
ATOM      2  N   UNL     1      42.744  51.792  37.487  0.00  0.00    +0.000 N 
ATOM      3  N   UNL     1      40.087  51.002  37.213  0.00  0.00    +0.000 N 
ATOM      4  N   UNL     1      39.264  52.378  38.691  0.00  0.00    +0.000 NA
ATOM      5  N   UNL     1      38.229  51.676  38.118  0.00  0.00    +0.000 NA
ATOM      6  C   UNL     1      41.099  50.309  36.435  0.00  0.00    +0.000 C 
ATOM      7  C   UNL     1      41.801  52.445  38.444  0.00  0.00    +0.000 C 
ATOM      8  C   UNL     1      42.423  50.385  37.199  0.00  0.00    +0.000 C 
ATOM      9  C   UNL     1      40.389  51.975  38.140  0.00  0.00    +0.000 A 
ATOM     10  C   UNL     1      43.859  52.427  36.950  0.00  0.00    +0.000 C 
ATOM     11  C   UNL     1      41.215  50.911  35.032  0.00  0.00    +0.000 C 
ATOM     12  C   UNL     1      41.789  53.973  38.569  0.00  0.00    +0.000 C 
ATOM     13  C   UNL     1      38.726  50.836  37.227  0.00  0.00    +0.000 A 
ENDROOT
BRANCH  13  17
ATOM     14  F   UNL     1      36.628  49.871  36.658  0.00  0.00    +0.000 F 
ATOM     15  F   UNL     1      38.383  48.595  36.554  0.00  0.00    +0.000 F 
ATOM     16  F   UNL     1      38.068  50.160  35.061  0.00  0.00    +0.000 F 
ATOM     17  C   UNL     1      37.964  49.877  36.383  0.00  0.00    +0.000 C 
ENDBRANCH  13  17
BRANCH  10  18
ATOM     18  C   UNL     1      44.780  51.582  36.073  0.00  0.00    +0.000 C 
BRANCH  18  19
ATOM     19  C   UNL     1      46.069  51.159  36.790  0.00  0.00    +0.000 C 
BRANCH  19  20
ATOM     20  N   UNL     1      45.908  51.444  38.230  0.00  0.00    +0.000 NA
ATOM     21  H   UNL     1      46.580  50.887  38.760  0.00  0.00    +0.000 HD
ATOM     22  H   UNL     1      44.989  51.136  38.546  0.00  0.00    +0.000 HD
ENDBRANCH  19  20
BRANCH  19  23
ATOM     23  C   UNL     1      47.290  51.920  36.214  0.00  0.00    +0.000 C 
BRANCH  23  27
ATOM     24  F   UNL     1      48.340  51.886  33.577  0.00  0.00    +0.000 F 
ATOM     25  F   UNL     1      50.639  48.485  37.161  0.00  0.00    +0.000 F 
ATOM     26  F   UNL     1      51.542  48.594  34.582  0.00  0.00    +0.000 F 
ATOM     27  C   UNL     1      48.431  51.029  35.790  0.00  0.00    +0.000 A 
ATOM     28  C   UNL     1      48.904  51.059  34.473  0.00  0.00    +0.000 A 
ATOM     29  C   UNL     1      49.023  50.134  36.703  0.00  0.00    +0.000 A 
ATOM     30  C   UNL     1      50.071  49.324  36.283  0.00  0.00    +0.000 A 
ATOM     31  C   UNL     1      49.948  50.245  34.056  0.00  0.00    +0.000 A 
ATOM     32  C   UNL     1      50.534  49.378  34.973  0.00  0.00    +0.000 A 
ENDBRANCH  23  27
ENDBRANCH  19  23
ENDBRANCH  18  19
ENDBRANCH  10  18
TORSDOF 6
ENDMDL
MODEL 3
REMARK VINA RESULT:      -8.1     19.791     22.946
REMARK  Name = 24777440
REMARK  8 active torsions:
REMARK  status: ('A' for Active; 'I' for Inactive)
REMARK    1  A    between atoms: N_12  and  C_22
REMARK    2  A    between atoms: C_13  and  C_18
REMARK    3  A    between atoms: C_14  and  C_19
REMARK    4  A    between atoms: C_17  and  C_21
REMARK    5  A    between atoms: C_20  and  C_24
REMARK    6  A    between atoms: C_21  and  C_22
REMARK    7  A    between atoms: C_22  and  C_23
REMARK    8  A    between atoms: C_23  and  C_25
REMARK                            x       y       z     vdW  Elec       q    Type
REMARK                         _______ _______ _______ _____ _____    ______ ____
ROOT
ATOM      1  O   UNL     1      55.468  70.089  40.198  0.00  0.00    +0.000 OA
ATOM      2  N   UNL     1      53.331  69.778  39.385  0.00  0.00    +0.000 N 
ATOM      3  N   UNL     1      50.881  71.093  39.224  0.00  0.00    +0.000 N 
ATOM      4  N   UNL     1      50.462  71.104  41.363  0.00  0.00    +0.000 NA
ATOM      5  N   UNL     1      49.452  71.774  40.714  0.00  0.00    +0.000 NA
ATOM      6  C   UNL     1      51.582  70.783  37.990  0.00  0.00    +0.000 C 
ATOM      7  C   UNL     1      52.609  69.908  40.687  0.00  0.00    +0.000 C 
ATOM      8  C   UNL     1      52.447  69.543  38.232  0.00  0.00    +0.000 C 
ATOM      9  C   UNL     1      51.331  70.697  40.463  0.00  0.00    +0.000 A 
ATOM     10  C   UNL     1      54.716  69.822  39.264  0.00  0.00    +0.000 C 
ATOM     11  C   UNL     1      52.417  71.977  37.521  0.00  0.00    +0.000 C 
ATOM     12  C   UNL     1      53.339  70.497  41.900  0.00  0.00    +0.000 C 
ATOM     13  C   UNL     1      49.700  71.762  39.415  0.00  0.00    +0.000 A 
ENDROOT
BRANCH  13  17
ATOM     14  F   UNL     1      49.507  73.338  37.644  0.00  0.00    +0.000 F 
ATOM     15  F   UNL     1      47.733  72.939  38.832  0.00  0.00    +0.000 F 
ATOM     16  F   UNL     1      48.474  71.443  37.421  0.00  0.00    +0.000 F 
ATOM     17  C   UNL     1      48.861  72.361  38.342  0.00  0.00    +0.000 C 
ENDBRANCH  13  17
BRANCH  10  18
ATOM     18  C   UNL     1      55.298  69.565  37.876  0.00  0.00    +0.000 C 
BRANCH  18  19
ATOM     19  C   UNL     1      56.135  70.738  37.351  0.00  0.00    +0.000 C 
BRANCH  19  20
ATOM     20  N   UNL     1      55.458  71.289  36.160  0.00  0.00    +0.000 NA
ATOM     21  H   UNL     1      55.279  70.534  35.495  0.00  0.00    +0.000 HD
ATOM     22  H   UNL     1      56.078  71.938  35.675  0.00  0.00    +0.000 HD
ENDBRANCH  19  20
BRANCH  19  23
ATOM     23  C   UNL     1      57.570  70.272  36.998  0.00  0.00    +0.000 C 
BRANCH  23  27
ATOM     24  F   UNL     1      60.160  69.108  37.018  0.00  0.00    +0.000 F 
ATOM     25  F   UNL     1      58.959  72.456  41.147  0.00  0.00    +0.000 F 
ATOM     26  F   UNL     1      61.416  71.265  41.001  0.00  0.00    +0.000 F 
ATOM     27  C   UNL     1      58.593  70.548  38.071  0.00  0.00    +0.000 A 
ATOM     28  C   UNL     1      59.853  69.943  38.025  0.00  0.00    +0.000 A 
ATOM     29  C   UNL     1      58.289  71.400  39.153  0.00  0.00    +0.000 A 
ATOM     30  C   UNL     1      59.250  71.634  40.129  0.00  0.00    +0.000 A 
ATOM     31  C   UNL     1      60.810  70.176  39.004  0.00  0.00    +0.000 A 
ATOM     32  C   UNL     1      60.501  71.031  40.056  0.00  0.00    +0.000 A 
ENDBRANCH  23  27
ENDBRANCH  19  23
ENDBRANCH  18  19
ENDBRANCH  10  18
TORSDOF 6
ENDMDL
MODEL 4
REMARK VINA RESULT:      -8.0      1.045      2.102
REMARK  Name = 24777440
REMARK  8 active torsions:
REMARK  status: ('A' for Active; 'I' for Inactive)
REMARK    1  A    between atoms: N_12  and  C_22
REMARK    2  A    between atoms: C_13  and  C_18
REMARK    3  A    between atoms: C_14  and  C_19
REMARK    4  A    between atoms: C_17  and  C_21
REMARK    5  A    between atoms: C_20  and  C_24
REMARK    6  A    between atoms: C_21  and  C_22
REMARK    7  A    between atoms: C_22  and  C_23
REMARK    8  A    between atoms: C_23  and  C_25
REMARK                            x       y       z     vdW  Elec       q    Type
REMARK                         _______ _______ _______ _____ _____    ______ ____
ROOT
ATOM      1  O   UNL     1      45.910  53.413  36.744  0.00  0.00    +0.000 OA
ATOM      2  N   UNL     1      47.430  52.949  35.072  0.00  0.00    +0.000 N 
ATOM      3  N   UNL     1      50.125  52.333  34.728  0.00  0.00    +0.000 N 
ATOM      4  N   UNL     1      50.909  54.248  35.416  0.00  0.00    +0.000 NA
ATOM      5  N   UNL     1      51.966  53.419  35.125  0.00  0.00    +0.000 NA
ATOM      6  C   UNL     1      49.134  51.344  34.339  0.00  0.00    +0.000 C 
ATOM      7  C   UNL     1      48.365  54.083  35.342  0.00  0.00    +0.000 C 
ATOM      8  C   UNL     1      47.849  52.082  33.959  0.00  0.00    +0.000 C 
ATOM      9  C   UNL     1      49.793  53.590  35.182  0.00  0.00    +0.000 A 
ATOM     10  C   UNL     1      46.242  52.748  35.767  0.00  0.00    +0.000 C 
ATOM     11  C   UNL     1      48.899  50.336  35.467  0.00  0.00    +0.000 C 
ATOM     12  C   UNL     1      48.261  54.849  36.666  0.00  0.00    +0.000 C 
ATOM     13  C   UNL     1      51.494  52.259  34.701  0.00  0.00    +0.000 A 
ENDROOT
BRANCH  13  17
ATOM     14  F   UNL     1      53.632  51.304  34.287  0.00  0.00    +0.000 F 
ATOM     15  F   UNL     1      51.993  50.698  32.996  0.00  0.00    +0.000 F 
ATOM     16  F   UNL     1      52.082  50.001  35.066  0.00  0.00    +0.000 F 
ATOM     17  C   UNL     1      52.287  51.078  34.268  0.00  0.00    +0.000 C 
ENDBRANCH  13  17
BRANCH  10  18
ATOM     18  C   UNL     1      45.349  51.604  35.293  0.00  0.00    +0.000 C 
BRANCH  18  19
ATOM     19  C   UNL     1      44.037  52.090  34.664  0.00  0.00    +0.000 C 
BRANCH  19  20
ATOM     20  N   UNL     1      44.331  53.290  33.855  0.00  0.00    +0.000 NA
ATOM     21  H   UNL     1      45.340  53.447  33.841  0.00  0.00    +0.000 HD
ATOM     22  H   UNL     1      43.932  54.117  34.300  0.00  0.00    +0.000 HD
ENDBRANCH  19  20
BRANCH  19  23
ATOM     23  C   UNL     1      42.990  52.411  35.760  0.00  0.00    +0.000 C 
BRANCH  23  27
ATOM     24  F   UNL     1      40.844  50.720  34.989  0.00  0.00    +0.000 F 
ATOM     25  F   UNL     1      43.376  49.475  39.651  0.00  0.00    +0.000 F 
ATOM     26  F   UNL     1      41.299  47.940  38.751  0.00  0.00    +0.000 F 
ATOM     27  C   UNL     1      42.549  51.215  36.566  0.00  0.00    +0.000 A 
ATOM     28  C   UNL     1      41.483  50.420  36.132  0.00  0.00    +0.000 A 
ATOM     29  C   UNL     1      43.186  50.891  37.781  0.00  0.00    +0.000 A 
ATOM     30  C   UNL     1      42.756  49.785  38.504  0.00  0.00    +0.000 A 
ATOM     31  C   UNL     1      41.054  49.317  36.858  0.00  0.00    +0.000 A 
ATOM     32  C   UNL     1      41.702  49.001  38.048  0.00  0.00    +0.000 A 
ENDBRANCH  23  27
ENDBRANCH  19  23
ENDBRANCH  18  19
ENDBRANCH  10  18
TORSDOF 6
ENDMDL
MODEL 5
REMARK VINA RESULT:      -7.9      1.842      2.651
REMARK  Name = 24777440
REMARK  8 active torsions:
REMARK  status: ('A' for Active; 'I' for Inactive)
REMARK    1  A    between atoms: N_12  and  C_22
REMARK    2  A    between atoms: C_13  and  C_18
REMARK    3  A    between atoms: C_14  and  C_19
REMARK    4  A    between atoms: C_17  and  C_21
REMARK    5  A    between atoms: C_20  and  C_24
REMARK    6  A    between atoms: C_21  and  C_22
REMARK    7  A    between atoms: C_22  and  C_23
REMARK    8  A    between atoms: C_23  and  C_25
REMARK                            x       y       z     vdW  Elec       q    Type
REMARK                         _______ _______ _______ _____ _____    ______ ____
ROOT
ATOM      1  O   UNL     1      48.120  53.230  36.780  0.00  0.00    +0.000 OA
ATOM      2  N   UNL     1      49.169  51.844  35.263  0.00  0.00    +0.000 N 
ATOM      3  N   UNL     1      51.510  50.365  34.965  0.00  0.00    +0.000 N 
ATOM      4  N   UNL     1      52.876  52.064  34.917  0.00  0.00    +0.000 NA
ATOM      5  N   UNL     1      53.613  50.905  34.851  0.00  0.00    +0.000 NA
ATOM      6  C   UNL     1      50.243  49.655  34.998  0.00  0.00    +0.000 C 
ATOM      7  C   UNL     1      50.403  52.666  35.074  0.00  0.00    +0.000 C 
ATOM      8  C   UNL     1      49.156  50.599  34.479  0.00  0.00    +0.000 C 
ATOM      9  C   UNL     1      51.603  51.738  34.993  0.00  0.00    +0.000 A 
ATOM     10  C   UNL     1      48.100  52.233  36.062  0.00  0.00    +0.000 C 
ATOM     11  C   UNL     1      49.935  49.154  36.412  0.00  0.00    +0.000 C 
ATOM     12  C   UNL     1      50.723  53.788  36.068  0.00  0.00    +0.000 C 
ATOM     13  C   UNL     1      52.787  49.873  34.873  0.00  0.00    +0.000 A 
ENDROOT
BRANCH  13  17
ATOM     14  F   UNL     1      54.488  48.235  34.597  0.00  0.00    +0.000 F 
ATOM     15  F   UNL     1      52.519  47.782  33.800  0.00  0.00    +0.000 F 
ATOM     16  F   UNL     1      52.863  47.776  35.959  0.00  0.00    +0.000 F 
ATOM     17  C   UNL     1      53.156  48.433  34.809  0.00  0.00    +0.000 C 
ENDBRANCH  13  17
BRANCH  10  18
ATOM     18  C   UNL     1      46.870  51.328  36.060  0.00  0.00    +0.000 C 
BRANCH  18  19
ATOM     19  C   UNL     1      45.692  51.920  35.275  0.00  0.00    +0.000 C 
BRANCH  19  20
ATOM     20  N   UNL     1      46.201  53.040  34.458  0.00  0.00    +0.000 NA
ATOM     21  H   UNL     1      45.564  53.204  33.677  0.00  0.00    +0.000 HD
ATOM     22  H   UNL     1      47.093  52.786  34.034  0.00  0.00    +0.000 HD
ENDBRANCH  19  20
BRANCH  19  23
ATOM     23  C   UNL     1      44.580  52.405  36.238  0.00  0.00    +0.000 C 
BRANCH  23  27
ATOM     24  F   UNL     1      42.630  51.976  34.219  0.00  0.00    +0.000 F 
ATOM     25  F   UNL     1      42.032  49.134  38.830  0.00  0.00    +0.000 F 
ATOM     26  F   UNL     1      40.253  48.828  36.776  0.00  0.00    +0.000 F 
ATOM     27  C   UNL     1      43.429  51.442  36.391  0.00  0.00    +0.000 A 
ATOM     28  C   UNL     1      42.500  51.275  35.358  0.00  0.00    +0.000 A 
ATOM     29  C   UNL     1      43.255  50.713  37.584  0.00  0.00    +0.000 A 
ATOM     30  C   UNL     1      42.183  49.835  37.698  0.00  0.00    +0.000 A 
ATOM     31  C   UNL     1      41.429  50.400  35.476  0.00  0.00    +0.000 A 
ATOM     32  C   UNL     1      41.279  49.676  36.654  0.00  0.00    +0.000 A 
ENDBRANCH  23  27
ENDBRANCH  19  23
ENDBRANCH  18  19
ENDBRANCH  10  18
TORSDOF 6
ENDMDL
MODEL 6
REMARK VINA RESULT:      -7.8     21.693     22.839
REMARK  Name = 24777440
REMARK  8 active torsions:
REMARK  status: ('A' for Active; 'I' for Inactive)
REMARK    1  A    between atoms: N_12  and  C_22
REMARK    2  A    between atoms: C_13  and  C_18
REMARK    3  A    between atoms: C_14  and  C_19
REMARK    4  A    between atoms: C_17  and  C_21
REMARK    5  A    between atoms: C_20  and  C_24
REMARK    6  A    between atoms: C_21  and  C_22
REMARK    7  A    between atoms: C_22  and  C_23
REMARK    8  A    between atoms: C_23  and  C_25
REMARK                            x       y       z     vdW  Elec       q    Type
REMARK                         _______ _______ _______ _____ _____    ______ ____
ROOT
ATOM      1  O   UNL     1      28.467  67.449  39.018  0.00  0.00    +0.000 OA
ATOM      2  N   UNL     1      30.641  67.317  39.781  0.00  0.00    +0.000 N 
ATOM      3  N   UNL     1      32.391  68.612  41.517  0.00  0.00    +0.000 N 
ATOM      4  N   UNL     1      32.504  70.486  40.407  0.00  0.00    +0.000 NA
ATOM      5  N   UNL     1      33.249  70.610  41.556  0.00  0.00    +0.000 NA
ATOM      6  C   UNL     1      32.024  67.236  41.804  0.00  0.00    +0.000 C 
ATOM      7  C   UNL     1      31.088  68.666  39.319  0.00  0.00    +0.000 C 
ATOM      8  C   UNL     1      31.683  66.549  40.480  0.00  0.00    +0.000 C 
ATOM      9  C   UNL     1      31.979  69.279  40.386  0.00  0.00    +0.000 A 
ATOM     10  C   UNL     1      29.373  66.800  39.534  0.00  0.00    +0.000 C 
ATOM     11  C   UNL     1      30.858  67.177  42.794  0.00  0.00    +0.000 C 
ATOM     12  C   UNL     1      30.043  69.706  38.900  0.00  0.00    +0.000 C 
ATOM     13  C   UNL     1      33.188  69.472  42.228  0.00  0.00    +0.000 A 
ENDROOT
BRANCH  13  17
ATOM     14  F   UNL     1      34.677  68.076  43.449  0.00  0.00    +0.000 F 
ATOM     15  F   UNL     1      32.964  68.890  44.509  0.00  0.00    +0.000 F 
ATOM     16  F   UNL     1      34.635  70.186  43.954  0.00  0.00    +0.000 F 
ATOM     17  C   UNL     1      33.856  69.163  43.520  0.00  0.00    +0.000 C 
ENDBRANCH  13  17
BRANCH  10  18
ATOM     18  C   UNL     1      29.114  65.363  39.981  0.00  0.00    +0.000 C 
BRANCH  18  19
ATOM     19  C   UNL     1      28.634  64.458  38.839  0.00  0.00    +0.000 C 
BRANCH  19  20
ATOM     20  N   UNL     1      28.087  63.221  39.431  0.00  0.00    +0.000 NA
ATOM     21  H   UNL     1      27.782  62.596  38.683  0.00  0.00    +0.000 HD
ATOM     22  H   UNL     1      27.246  63.434  39.968  0.00  0.00    +0.000 HD
ENDBRANCH  19  20
BRANCH  19  23
ATOM     23  C   UNL     1      29.800  64.132  37.872  0.00  0.00    +0.000 C 
BRANCH  23  27
ATOM     24  F   UNL     1      27.712  63.960  35.955  0.00  0.00    +0.000 F 
ATOM     25  F   UNL     1      31.815  67.353  34.794  0.00  0.00    +0.000 F 
ATOM     26  F   UNL     1      29.713  67.080  33.066  0.00  0.00    +0.000 F 
ATOM     27  C   UNL     1      29.785  64.929  36.591  0.00  0.00    +0.000 A 
ATOM     28  C   UNL     1      28.726  64.799  35.686  0.00  0.00    +0.000 A 
ATOM     29  C   UNL     1      30.848  65.798  36.272  0.00  0.00    +0.000 A 
ATOM     30  C   UNL     1      30.808  66.518  35.084  0.00  0.00    +0.000 A 
ATOM     31  C   UNL     1      28.691  65.517  34.498  0.00  0.00    +0.000 A 
ATOM     32  C   UNL     1      29.740  66.383  34.204  0.00  0.00    +0.000 A 
ENDBRANCH  23  27
ENDBRANCH  19  23
ENDBRANCH  18  19
ENDBRANCH  10  18
TORSDOF 6
ENDMDL
MODEL 7
REMARK VINA RESULT:      -7.7     19.613     22.308
REMARK  Name = 24777440
REMARK  8 active torsions:
REMARK  status: ('A' for Active; 'I' for Inactive)
REMARK    1  A    between atoms: N_12  and  C_22
REMARK    2  A    between atoms: C_13  and  C_18
REMARK    3  A    between atoms: C_14  and  C_19
REMARK    4  A    between atoms: C_17  and  C_21
REMARK    5  A    between atoms: C_20  and  C_24
REMARK    6  A    between atoms: C_21  and  C_22
REMARK    7  A    between atoms: C_22  and  C_23
REMARK    8  A    between atoms: C_23  and  C_25
REMARK                            x       y       z     vdW  Elec       q    Type
REMARK                         _______ _______ _______ _____ _____    ______ ____
ROOT
ATOM      1  O   UNL     1      30.980  66.808  42.226  0.00  0.00    +0.000 OA
ATOM      2  N   UNL     1      29.457  66.718  40.496  0.00  0.00    +0.000 N 
ATOM      3  N   UNL     1      29.303  66.032  37.801  0.00  0.00    +0.000 N 
ATOM      4  N   UNL     1      30.601  67.623  37.064  0.00  0.00    +0.000 NA
ATOM      5  N   UNL     1      30.226  66.833  36.003  0.00  0.00    +0.000 NA
ATOM      6  C   UNL     1      28.526  65.262  38.756  0.00  0.00    +0.000 C 
ATOM      7  C   UNL     1      30.156  67.664  39.575  0.00  0.00    +0.000 C 
ATOM      8  C   UNL     1      28.207  66.165  39.949  0.00  0.00    +0.000 C 
ATOM      9  C   UNL     1      30.048  67.135  38.155  0.00  0.00    +0.000 A 
ATOM     10  C   UNL     1      29.906  66.417  41.778  0.00  0.00    +0.000 C 
ATOM     11  C   UNL     1      29.281  64.000  39.182  0.00  0.00    +0.000 C 
ATOM     12  C   UNL     1      31.617  68.040  39.845  0.00  0.00    +0.000 C 
ATOM     13  C   UNL     1      29.433  65.872  36.445  0.00  0.00    +0.000 A 
ENDROOT
BRANCH  13  17
ATOM     14  F   UNL     1      28.906  65.010  34.293  0.00  0.00    +0.000 F 
ATOM     15  F   UNL     1      27.457  64.703  35.881  0.00  0.00    +0.000 F 
ATOM     16  F   UNL     1      29.333  63.583  35.870  0.00  0.00    +0.000 F 
ATOM     17  C   UNL     1      28.790  64.803  35.635  0.00  0.00    +0.000 C 
ENDBRANCH  13  17
BRANCH  10  18
ATOM     18  C   UNL     1      29.016  65.515  42.629  0.00  0.00    +0.000 C 
BRANCH  18  19
ATOM     19  C   UNL     1      29.593  64.105  42.812  0.00  0.00    +0.000 C 
BRANCH  19  20
ATOM     20  N   UNL     1      28.505  63.131  42.589  0.00  0.00    +0.000 NA
ATOM     21  H   UNL     1      28.438  62.511  43.398  0.00  0.00    +0.000 HD
ATOM     22  H   UNL     1      28.735  62.526  41.801  0.00  0.00    +0.000 HD
ENDBRANCH  19  20
BRANCH  19  23
ATOM     23  C   UNL     1      30.194  63.939  44.230  0.00  0.00    +0.000 C 
BRANCH  23  27
ATOM     24  F   UNL     1      32.011  65.062  46.101  0.00  0.00    +0.000 F 
ATOM     25  F   UNL     1      34.109  61.634  42.421  0.00  0.00    +0.000 F 
ATOM     26  F   UNL     1      35.715  62.790  44.308  0.00  0.00    +0.000 F 
ATOM     27  C   UNL     1      31.669  63.622  44.245  0.00  0.00    +0.000 A 
ATOM     28  C   UNL     1      32.513  64.208  45.194  0.00  0.00    +0.000 A 
ATOM     29  C   UNL     1      32.226  62.748  43.289  0.00  0.00    +0.000 A 
ATOM     30  C   UNL     1      33.588  62.476  43.325  0.00  0.00    +0.000 A 
ATOM     31  C   UNL     1      33.874  63.936  45.225  0.00  0.00    +0.000 A 
ATOM     32  C   UNL     1      34.407  63.061  44.284  0.00  0.00    +0.000 A 
ENDBRANCH  23  27
ENDBRANCH  19  23
ENDBRANCH  18  19
ENDBRANCH  10  18
TORSDOF 6
ENDMDL
MODEL 8
REMARK VINA RESULT:      -7.6     21.469     23.497
REMARK  Name = 24777440
REMARK  8 active torsions:
REMARK  status: ('A' for Active; 'I' for Inactive)
REMARK    1  A    between atoms: N_12  and  C_22
REMARK    2  A    between atoms: C_13  and  C_18
REMARK    3  A    between atoms: C_14  and  C_19
REMARK    4  A    between atoms: C_17  and  C_21
REMARK    5  A    between atoms: C_20  and  C_24
REMARK    6  A    between atoms: C_21  and  C_22
REMARK    7  A    between atoms: C_22  and  C_23
REMARK    8  A    between atoms: C_23  and  C_25
REMARK                            x       y       z     vdW  Elec       q    Type
REMARK                         _______ _______ _______ _____ _____    ______ ____
ROOT
ATOM      1  O   UNL     1      28.933  63.429  40.487  0.00  0.00    +0.000 OA
ATOM      2  N   UNL     1      28.732  65.726  40.435  0.00  0.00    +0.000 N 
ATOM      3  N   UNL     1      30.158  68.024  41.102  0.00  0.00    +0.000 N 
ATOM      4  N   UNL     1      30.154  67.703  43.259  0.00  0.00    +0.000 NA
ATOM      5  N   UNL     1      30.879  68.839  42.985  0.00  0.00    +0.000 NA
ATOM      6  C   UNL     1      29.836  67.791  39.705  0.00  0.00    +0.000 C 
ATOM      7  C   UNL     1      28.873  65.965  41.903  0.00  0.00    +0.000 C 
ATOM      8  C   UNL     1      28.556  66.955  39.645  0.00  0.00    +0.000 C 
ATOM      9  C   UNL     1      29.723  67.205  42.120  0.00  0.00    +0.000 A 
ATOM     10  C   UNL     1      28.715  64.461  39.858  0.00  0.00    +0.000 C 
ATOM     11  C   UNL     1      30.999  67.105  38.984  0.00  0.00    +0.000 C 
ATOM     12  C   UNL     1      29.409  64.845  42.802  0.00  0.00    +0.000 C 
ATOM     13  C   UNL     1      30.877  69.040  41.678  0.00  0.00    +0.000 A 
ENDROOT
BRANCH  13  17
ATOM     14  F   UNL     1      32.136  71.055  41.777  0.00  0.00    +0.000 F 
ATOM     15  F   UNL     1      30.643  70.879  40.209  0.00  0.00    +0.000 F 
ATOM     16  F   UNL     1      32.496  69.726  40.101  0.00  0.00    +0.000 F 
ATOM     17  C   UNL     1      31.529  70.159  40.947  0.00  0.00    +0.000 C 
ENDBRANCH  13  17
BRANCH  10  18
ATOM     18  C   UNL     1      28.454  64.389  38.355  0.00  0.00    +0.000 C 
BRANCH  18  19
ATOM     19  C   UNL     1      29.384  63.406  37.632  0.00  0.00    +0.000 C 
BRANCH  19  20
ATOM     20  N   UNL     1      30.767  63.670  38.076  0.00  0.00    +0.000 NA
ATOM     21  H   UNL     1      31.389  62.963  37.679  0.00  0.00    +0.000 HD
ATOM     22  H   UNL     1      30.837  63.558  39.087  0.00  0.00    +0.000 HD
ENDBRANCH  19  20
BRANCH  19  23
ATOM     23  C   UNL     1      29.261  63.567  36.096  0.00  0.00    +0.000 C 
BRANCH  23  27
ATOM     24  F   UNL     1      26.788  64.555  35.113  0.00  0.00    +0.000 F 
ATOM     25  F   UNL     1      30.942  68.080  35.250  0.00  0.00    +0.000 F 
ATOM     26  F   UNL     1      28.484  68.872  34.349  0.00  0.00    +0.000 F 
ATOM     27  C   UNL     1      29.063  64.989  35.635  0.00  0.00    +0.000 A 
ATOM     28  C   UNL     1      27.819  65.416  35.160  0.00  0.00    +0.000 A 
ATOM     29  C   UNL     1      30.134  65.907  35.652  0.00  0.00    +0.000 A 
ATOM     30  C   UNL     1      29.922  67.210  35.219  0.00  0.00    +0.000 A 
ATOM     31  C   UNL     1      27.612  66.718  34.725  0.00  0.00    +0.000 A 
ATOM     32  C   UNL     1      28.674  67.616  34.762  0.00  0.00    +0.000 A 
ENDBRANCH  23  27
ENDBRANCH  19  23
ENDBRANCH  18  19
ENDBRANCH  10  18
TORSDOF 6
ENDMDL
MODEL 9
REMARK VINA RESULT:      -7.5     21.190     24.494
REMARK  Name = 24777440
REMARK  8 active torsions:
REMARK  status: ('A' for Active; 'I' for Inactive)
REMARK    1  A    between atoms: N_12  and  C_22
REMARK    2  A    between atoms: C_13  and  C_18
REMARK    3  A    between atoms: C_14  and  C_19
REMARK    4  A    between atoms: C_17  and  C_21
REMARK    5  A    between atoms: C_20  and  C_24
REMARK    6  A    between atoms: C_21  and  C_22
REMARK    7  A    between atoms: C_22  and  C_23
REMARK    8  A    between atoms: C_23  and  C_25
REMARK                            x       y       z     vdW  Elec       q    Type
REMARK                         _______ _______ _______ _____ _____    ______ ____
ROOT
ATOM      1  O   UNL     1      29.803  64.828  36.185  0.00  0.00    +0.000 OA
ATOM      2  N   UNL     1      29.513  67.071  35.729  0.00  0.00    +0.000 N 
ATOM      3  N   UNL     1      27.558  69.051  35.842  0.00  0.00    +0.000 N 
ATOM      4  N   UNL     1      26.247  68.195  34.324  0.00  0.00    +0.000 NA
ATOM      5  N   UNL     1      25.652  69.327  34.832  0.00  0.00    +0.000 NA
ATOM      6  C   UNL     1      28.739  69.197  36.675  0.00  0.00    +0.000 C 
ATOM      7  C   UNL     1      28.420  66.922  34.721  0.00  0.00    +0.000 C 
ATOM      8  C   UNL     1      29.897  68.467  35.992  0.00  0.00    +0.000 C 
ATOM      9  C   UNL     1      27.397  68.024  34.940  0.00  0.00    +0.000 A 
ATOM     10  C   UNL     1      30.155  65.995  36.334  0.00  0.00    +0.000 C 
ATOM     11  C   UNL     1      28.480  68.659  38.086  0.00  0.00    +0.000 C 
ATOM     12  C   UNL     1      27.678  65.585  34.603  0.00  0.00    +0.000 C 
ATOM     13  C   UNL     1      26.449  69.852  35.747  0.00  0.00    +0.000 A 
ENDROOT
BRANCH  13  17
ATOM     14  F   UNL     1      27.225  71.986  36.454  0.00  0.00    +0.000 F 
ATOM     15  F   UNL     1      26.050  70.826  37.865  0.00  0.00    +0.000 F 
ATOM     16  F   UNL     1      25.093  71.748  36.130  0.00  0.00    +0.000 F 
ATOM     17  C   UNL     1      26.204  71.087  36.540  0.00  0.00    +0.000 C 
ENDBRANCH  13  17
BRANCH  10  18
ATOM     18  C   UNL     1      31.324  66.320  37.260  0.00  0.00    +0.000 C 
BRANCH  18  19
ATOM     19  C   UNL     1      31.303  65.505  38.560  0.00  0.00    +0.000 C 
BRANCH  19  20
ATOM     20  N   UNL     1      31.657  64.109  38.233  0.00  0.00    +0.000 NA
ATOM     21  H   UNL     1      31.166  63.828  37.382  0.00  0.00    +0.000 HD
ATOM     22  H   UNL     1      31.316  63.483  38.963  0.00  0.00    +0.000 HD
ENDBRANCH  19  20
BRANCH  19  23
ATOM     23  C   UNL     1      29.906  65.575  39.226  0.00  0.00    +0.000 C 
BRANCH  23  27
ATOM     24  F   UNL     1      28.578  63.180  39.976  0.00  0.00    +0.000 F 
ATOM     25  F   UNL     1      31.040  65.956  43.968  0.00  0.00    +0.000 F 
ATOM     26  F   UNL     1      29.730  63.618  44.512  0.00  0.00    +0.000 F 
ATOM     27  C   UNL     1      29.869  65.058  40.643  0.00  0.00    +0.000 A 
ATOM     28  C   UNL     1      29.197  63.870  40.949  0.00  0.00    +0.000 A 
ATOM     29  C   UNL     1      30.489  65.775  41.687  0.00  0.00    +0.000 A 
ATOM     30  C   UNL     1      30.436  65.276  42.983  0.00  0.00    +0.000 A 
ATOM     31  C   UNL     1      29.143  63.376  42.245  0.00  0.00    +0.000 A 
ATOM     32  C   UNL     1      29.773  64.087  43.263  0.00  0.00    +0.000 A 
ENDBRANCH  23  27
ENDBRANCH  19  23
ENDBRANCH  18  19
ENDBRANCH  10  18
TORSDOF 6
ENDMDL
