MODEL 1
REMARK VINA RESULT:      -9.0      0.000      0.000
REMARK  Name = 24776701
REMARK  9 active torsions:
REMARK  status: ('A' for Active; 'I' for Inactive)
REMARK    1  A    between atoms: N_15  and  C_25
REMARK    2  A    between atoms: C_16  and  C_20
REMARK    3  A    between atoms: C_20  and  C_24
REMARK    4  A    between atoms: C_21  and  C_22
REMARK    5  A    between atoms: C_22  and  C_25
REMARK    6  A    between atoms: C_23  and  C_28
REMARK    7  A    between atoms: C_25  and  C_26
REMARK    8  A    between atoms: C_26  and  C_30
REMARK    9  A    between atoms: C_27  and  C_32
REMARK                            x       y       z     vdW  Elec       q    Type
REMARK                         _______ _______ _______ _____ _____    ______ ____
ROOT
ATOM      1  O   UNL     1      54.497  71.205  36.378  0.00  0.00    +0.000 OA
ATOM      2  N   UNL     1      55.454  70.507  38.332  0.00  0.00    +0.000 N 
ATOM      3  N   UNL     1      57.742  70.706  39.915  0.00  0.00    +0.000 N 
ATOM      4  N   UNL     1      59.161  70.677  38.264  0.00  0.00    +0.000 NA
ATOM      5  N   UNL     1      59.850  70.919  39.425  0.00  0.00    +0.000 NA
ATOM      6  C   UNL     1      56.749  70.237  37.627  0.00  0.00    +0.000 C 
ATOM      7  C   UNL     1      55.378  70.069  39.734  0.00  0.00    +0.000 C 
ATOM      8  C   UNL     1      57.886  70.534  38.564  0.00  0.00    +0.000 A 
ATOM      9  C   UNL     1      56.465  70.714  40.586  0.00  0.00    +0.000 C 
ATOM     10  C   UNL     1      54.376  70.965  37.584  0.00  0.00    +0.000 C 
ATOM     11  C   UNL     1      58.989  70.957  40.427  0.00  0.00    +0.000 A 
ENDROOT
BRANCH  11  15
ATOM     12  F   UNL     1      60.633  71.316  42.093  0.00  0.00    +0.000 F 
ATOM     13  F   UNL     1      58.818  70.283  42.685  0.00  0.00    +0.000 F 
ATOM     14  F   UNL     1      58.772  72.427  42.266  0.00  0.00    +0.000 F 
ATOM     15  C   UNL     1      59.294  71.244  41.853  0.00  0.00    +0.000 C 
ENDBRANCH  11  15
BRANCH   6  16
ATOM     16  C   UNL     1      56.812  68.786  37.061  0.00  0.00    +0.000 C 
BRANCH  16  17
ATOM     17  C   UNL     1      56.502  68.611  35.571  0.00  0.00    +0.000 A 
ATOM     18  C   UNL     1      55.310  68.028  35.066  0.00  0.00    +0.000 A 
ATOM     19  C   UNL     1      57.475  69.044  34.645  0.00  0.00    +0.000 A 
ATOM     20  C   UNL     1      55.182  67.832  33.669  0.00  0.00    +0.000 A 
ATOM     21  C   UNL     1      57.299  68.885  33.267  0.00  0.00    +0.000 A 
ATOM     22  C   UNL     1      56.163  68.258  32.778  0.00  0.00    +0.000 A 
BRANCH  18  26
ATOM     23  F   UNL     1      54.270  67.687  37.247  0.00  0.00    +0.000 F 
ATOM     24  F   UNL     1      53.041  68.464  35.645  0.00  0.00    +0.000 F 
ATOM     25  F   UNL     1      53.638  66.384  35.628  0.00  0.00    +0.000 F 
ATOM     26  C   UNL     1      54.101  67.636  35.894  0.00  0.00    +0.000 C 
ENDBRANCH  18  26
ENDBRANCH  16  17
ENDBRANCH   6  16
BRANCH  10  27
ATOM     27  C   UNL     1      53.021  71.205  38.255  0.00  0.00    +0.000 C 
BRANCH  27  28
ATOM     28  C   UNL     1      51.932  71.693  37.284  0.00  0.00    +0.000 C 
BRANCH  28  29
ATOM     29  N   UNL     1      51.997  73.146  37.085  0.00  0.00    +0.000 NA
ATOM     30  H   UNL     1      52.925  73.460  36.808  0.00  0.00    +0.000 HD
ATOM     31  H   UNL     1      51.778  73.648  37.955  0.00  0.00    +0.000 HD
ENDBRANCH  28  29
BRANCH  28  32
ATOM     32  C   UNL     1      50.484  71.251  37.664  0.00  0.00    +0.000 C 
BRANCH  32  36
ATOM     33  F   UNL     1      50.530  70.200  40.362  0.00  0.00    +0.000 F 
ATOM     34  F   UNL     1      47.890  74.901  39.612  0.00  0.00    +0.000 F 
ATOM     35  F   UNL     1      47.812  73.638  42.041  0.00  0.00    +0.000 F 
ATOM     36  C   UNL     1      49.851  71.921  38.868  0.00  0.00    +0.000 A 
ATOM     37  C   UNL     1      49.868  71.345  40.147  0.00  0.00    +0.000 A 
ATOM     38  C   UNL     1      49.201  73.157  38.713  0.00  0.00    +0.000 A 
ATOM     39  C   UNL     1      48.529  73.735  39.787  0.00  0.00    +0.000 A 
ATOM     40  C   UNL     1      49.188  71.915  41.219  0.00  0.00    +0.000 A 
ATOM     41  C   UNL     1      48.503  73.105  41.025  0.00  0.00    +0.000 A 
ENDBRANCH  32  36
ENDBRANCH  28  32
ENDBRANCH  27  28
ENDBRANCH  10  27
TORSDOF 9
ENDMDL
MODEL 2
REMARK VINA RESULT:      -8.9      2.131      2.791
REMARK  Name = 24776701
REMARK  9 active torsions:
REMARK  status: ('A' for Active; 'I' for Inactive)
REMARK    1  A    between atoms: N_15  and  C_25
REMARK    2  A    between atoms: C_16  and  C_20
REMARK    3  A    between atoms: C_20  and  C_24
REMARK    4  A    between atoms: C_21  and  C_22
REMARK    5  A    between atoms: C_22  and  C_25
REMARK    6  A    between atoms: C_23  and  C_28
REMARK    7  A    between atoms: C_25  and  C_26
REMARK    8  A    between atoms: C_26  and  C_30
REMARK    9  A    between atoms: C_27  and  C_32
REMARK                            x       y       z     vdW  Elec       q    Type
REMARK                         _______ _______ _______ _____ _____    ______ ____
ROOT
ATOM      1  O   UNL     1      53.066  70.434  36.358  0.00  0.00    +0.000 OA
ATOM      2  N   UNL     1      54.683  69.853  37.865  0.00  0.00    +0.000 N 
ATOM      3  N   UNL     1      57.361  70.225  38.547  0.00  0.00    +0.000 N 
ATOM      4  N   UNL     1      58.118  70.216  36.506  0.00  0.00    +0.000 NA
ATOM      5  N   UNL     1      59.151  70.532  37.350  0.00  0.00    +0.000 NA
ATOM      6  C   UNL     1      55.666  69.628  36.756  0.00  0.00    +0.000 C 
ATOM      7  C   UNL     1      55.125  69.459  39.210  0.00  0.00    +0.000 C 
ATOM      8  C   UNL     1      57.038  70.015  37.233  0.00  0.00    +0.000 A 
ATOM      9  C   UNL     1      56.399  70.188  39.621  0.00  0.00    +0.000 C 
ATOM     10  C   UNL     1      53.386  70.228  37.533  0.00  0.00    +0.000 C 
ATOM     11  C   UNL     1      58.691  70.557  38.589  0.00  0.00    +0.000 A 
ENDROOT
BRANCH  11  15
ATOM     12  F   UNL     1      59.328  69.966  40.791  0.00  0.00    +0.000 F 
ATOM     13  F   UNL     1      59.032  72.075  40.368  0.00  0.00    +0.000 F 
ATOM     14  F   UNL     1      60.784  71.033  39.580  0.00  0.00    +0.000 F 
ATOM     15  C   UNL     1      59.454  70.908  39.815  0.00  0.00    +0.000 C 
ENDBRANCH  11  15
BRANCH   6  16
ATOM     16  C   UNL     1      55.617  68.164  36.222  0.00  0.00    +0.000 C 
BRANCH  16  17
ATOM     17  C   UNL     1      54.981  67.951  34.844  0.00  0.00    +0.000 A 
ATOM     18  C   UNL     1      55.672  68.099  33.614  0.00  0.00    +0.000 A 
ATOM     19  C   UNL     1      53.614  67.599  34.802  0.00  0.00    +0.000 A 
ATOM     20  C   UNL     1      54.949  67.971  32.402  0.00  0.00    +0.000 A 
ATOM     21  C   UNL     1      52.938  67.427  33.591  0.00  0.00    +0.000 A 
ATOM     22  C   UNL     1      53.598  67.635  32.390  0.00  0.00    +0.000 A 
BRANCH  18  26
ATOM     23  F   UNL     1      57.694  67.991  32.252  0.00  0.00    +0.000 F 
ATOM     24  F   UNL     1      57.474  69.657  33.616  0.00  0.00    +0.000 F 
ATOM     25  F   UNL     1      57.917  67.685  34.391  0.00  0.00    +0.000 F 
ATOM     26  C   UNL     1      57.163  68.333  33.462  0.00  0.00    +0.000 C 
ENDBRANCH  18  26
ENDBRANCH  16  17
ENDBRANCH   6  16
BRANCH  10  27
ATOM     27  C   UNL     1      52.337  70.419  38.632  0.00  0.00    +0.000 C 
BRANCH  27  28
ATOM     28  C   UNL     1      51.073  69.565  38.430  0.00  0.00    +0.000 C 
BRANCH  28  29
ATOM     29  N   UNL     1      51.351  68.373  37.619  0.00  0.00    +0.000 NA
ATOM     30  H   UNL     1      52.131  67.830  37.980  0.00  0.00    +0.000 HD
ATOM     31  H   UNL     1      51.610  68.633  36.658  0.00  0.00    +0.000 HD
ENDBRANCH  28  29
BRANCH  28  32
ATOM     32  C   UNL     1      49.849  70.349  37.861  0.00  0.00    +0.000 C 
BRANCH  32  36
ATOM     33  F   UNL     1      50.166  73.221  37.688  0.00  0.00    +0.000 F 
ATOM     34  F   UNL     1      46.990  71.348  41.691  0.00  0.00    +0.000 F 
ATOM     35  F   UNL     1      47.604  74.012  41.540  0.00  0.00    +0.000 F 
ATOM     36  C   UNL     1      49.184  71.352  38.782  0.00  0.00    +0.000 A 
ATOM     37  C   UNL     1      49.406  72.734  38.678  0.00  0.00    +0.000 A 
ATOM     38  C   UNL     1      48.324  70.901  39.797  0.00  0.00    +0.000 A 
ATOM     39  C   UNL     1      47.786  71.802  40.712  0.00  0.00    +0.000 A 
ATOM     40  C   UNL     1      48.879  73.634  39.598  0.00  0.00    +0.000 A 
ATOM     41  C   UNL     1      48.081  73.156  40.627  0.00  0.00    +0.000 A 
ENDBRANCH  32  36
ENDBRANCH  28  32
ENDBRANCH  27  28
ENDBRANCH  10  27
TORSDOF 9
ENDMDL
MODEL 3
REMARK VINA RESULT:      -8.9     21.258     24.768
REMARK  Name = 24776701
REMARK  9 active torsions:
REMARK  status: ('A' for Active; 'I' for Inactive)
REMARK    1  A    between atoms: N_15  and  C_25
REMARK    2  A    between atoms: C_16  and  C_20
REMARK    3  A    between atoms: C_20  and  C_24
REMARK    4  A    between atoms: C_21  and  C_22
REMARK    5  A    between atoms: C_22  and  C_25
REMARK    6  A    between atoms: C_23  and  C_28
REMARK    7  A    between atoms: C_25  and  C_26
REMARK    8  A    between atoms: C_26  and  C_30
REMARK    9  A    between atoms: C_27  and  C_32
REMARK                            x       y       z     vdW  Elec       q    Type
REMARK                         _______ _______ _______ _____ _____    ______ ____
ROOT
ATOM      1  O   UNL     1      41.689  52.883  36.026  0.00  0.00    +0.000 OA
ATOM      2  N   UNL     1      40.414  51.058  36.540  0.00  0.00    +0.000 N 
ATOM      3  N   UNL     1      37.796  50.182  36.937  0.00  0.00    +0.000 N 
ATOM      4  N   UNL     1      37.119  51.964  37.989  0.00  0.00    +0.000 NA
ATOM      5  N   UNL     1      36.037  51.148  37.776  0.00  0.00    +0.000 NA
ATOM      6  C   UNL     1      39.603  51.869  37.506  0.00  0.00    +0.000 C 
ATOM      7  C   UNL     1      40.149  49.612  36.529  0.00  0.00    +0.000 C 
ATOM      8  C   UNL     1      38.186  51.371  37.494  0.00  0.00    +0.000 A 
ATOM      9  C   UNL     1      38.688  49.308  36.215  0.00  0.00    +0.000 C 
ATOM     10  C   UNL     1      41.465  51.678  35.874  0.00  0.00    +0.000 C 
ATOM     11  C   UNL     1      36.441  50.074  37.121  0.00  0.00    +0.000 A 
ENDROOT
BRANCH  11  15
ATOM     12  F   UNL     1      35.613  48.837  35.279  0.00  0.00    +0.000 F 
ATOM     13  F   UNL     1      34.287  49.113  36.976  0.00  0.00    +0.000 F 
ATOM     14  F   UNL     1      35.991  47.753  37.125  0.00  0.00    +0.000 F 
ATOM     15  C   UNL     1      35.593  48.954  36.636  0.00  0.00    +0.000 C 
ENDBRANCH  11  15
BRANCH   6  16
ATOM     16  C   UNL     1      40.222  51.859  38.937  0.00  0.00    +0.000 C 
BRANCH  16  17
ATOM     17  C   UNL     1      41.618  52.471  39.092  0.00  0.00    +0.000 A 
ATOM     18  C   UNL     1      42.808  51.716  39.259  0.00  0.00    +0.000 A 
ATOM     19  C   UNL     1      41.719  53.879  39.083  0.00  0.00    +0.000 A 
ATOM     20  C   UNL     1      44.027  52.400  39.491  0.00  0.00    +0.000 A 
ATOM     21  C   UNL     1      42.944  54.528  39.262  0.00  0.00    +0.000 A 
ATOM     22  C   UNL     1      44.096  53.790  39.489  0.00  0.00    +0.000 A 
BRANCH  18  26
ATOM     23  F   UNL     1      43.136  49.715  37.901  0.00  0.00    +0.000 F 
ATOM     24  F   UNL     1      43.962  49.733  39.901  0.00  0.00    +0.000 F 
ATOM     25  F   UNL     1      41.823  49.545  39.623  0.00  0.00    +0.000 F 
ATOM     26  C   UNL     1      42.916  50.206  39.155  0.00  0.00    +0.000 C 
ENDBRANCH  18  26
ENDBRANCH  16  17
ENDBRANCH   6  16
BRANCH  10  27
ATOM     27  C   UNL     1      42.348  50.874  34.917  0.00  0.00    +0.000 C 
BRANCH  27  28
ATOM     28  C   UNL     1      42.883  51.700  33.734  0.00  0.00    +0.000 C 
BRANCH  28  29
ATOM     29  N   UNL     1      43.396  50.837  32.662  0.00  0.00    +0.000 NA
ATOM     30  H   UNL     1      43.519  49.874  32.963  0.00  0.00    +0.000 HD
ATOM     31  H   UNL     1      44.321  51.154  32.345  0.00  0.00    +0.000 HD
ENDBRANCH  28  29
BRANCH  28  32
ATOM     32  C   UNL     1      43.937  52.782  34.127  0.00  0.00    +0.000 C 
BRANCH  32  36
ATOM     33  F   UNL     1      46.581  52.964  32.962  0.00  0.00    +0.000 F 
ATOM     34  F   UNL     1      46.224  50.621  37.861  0.00  0.00    +0.000 F 
ATOM     35  F   UNL     1      48.603  50.643  36.505  0.00  0.00    +0.000 F 
ATOM     36  C   UNL     1      45.212  52.296  34.788  0.00  0.00    +0.000 A 
ATOM     37  C   UNL     1      46.464  52.372  34.158  0.00  0.00    +0.000 A 
ATOM     38  C   UNL     1      45.157  51.727  36.071  0.00  0.00    +0.000 A 
ATOM     39  C   UNL     1      46.303  51.185  36.648  0.00  0.00    +0.000 A 
ATOM     40  C   UNL     1      47.608  51.822  34.727  0.00  0.00    +0.000 A 
ATOM     41  C   UNL     1      47.515  51.212  35.969  0.00  0.00    +0.000 A 
ENDBRANCH  32  36
ENDBRANCH  28  32
ENDBRANCH  27  28
ENDBRANCH  10  27
TORSDOF 9
ENDMDL
MODEL 4
REMARK VINA RESULT:      -8.8      3.433      8.826
REMARK  Name = 24776701
REMARK  9 active torsions:
REMARK  status: ('A' for Active; 'I' for Inactive)
REMARK    1  A    between atoms: N_15  and  C_25
REMARK    2  A    between atoms: C_16  and  C_20
REMARK    3  A    between atoms: C_20  and  C_24
REMARK    4  A    between atoms: C_21  and  C_22
REMARK    5  A    between atoms: C_22  and  C_25
REMARK    6  A    between atoms: C_23  and  C_28
REMARK    7  A    between atoms: C_25  and  C_26
REMARK    8  A    between atoms: C_26  and  C_30
REMARK    9  A    between atoms: C_27  and  C_32
REMARK                            x       y       z     vdW  Elec       q    Type
REMARK                         _______ _______ _______ _____ _____    ______ ____
ROOT
ATOM      1  O   UNL     1      55.249  71.805  39.466  0.00  0.00    +0.000 OA
ATOM      2  N   UNL     1      53.615  70.233  39.752  0.00  0.00    +0.000 N 
ATOM      3  N   UNL     1      51.062  69.805  40.790  0.00  0.00    +0.000 N 
ATOM      4  N   UNL     1      51.337  71.020  42.576  0.00  0.00    +0.000 NA
ATOM      5  N   UNL     1      50.027  70.617  42.523  0.00  0.00    +0.000 NA
ATOM      6  C   UNL     1      53.417  70.666  41.174  0.00  0.00    +0.000 C 
ATOM      7  C   UNL     1      52.881  69.029  39.336  0.00  0.00    +0.000 C 
ATOM      8  C   UNL     1      51.966  70.516  41.534  0.00  0.00    +0.000 A 
ATOM      9  C   UNL     1      51.377  69.193  39.523  0.00  0.00    +0.000 C 
ATOM     10  C   UNL     1      54.596  70.866  38.999  0.00  0.00    +0.000 C 
ATOM     11  C   UNL     1      49.852  69.895  41.430  0.00  0.00    +0.000 A 
ENDROOT
BRANCH  11  15
ATOM     12  F   UNL     1      47.536  69.560  41.790  0.00  0.00    +0.000 F 
ATOM     13  F   UNL     1      48.644  67.950  40.845  0.00  0.00    +0.000 F 
ATOM     14  F   UNL     1      48.208  69.781  39.734  0.00  0.00    +0.000 F 
ATOM     15  C   UNL     1      48.577  69.303  40.949  0.00  0.00    +0.000 C 
ENDBRANCH  11  15
BRANCH   6  16
ATOM     16  C   UNL     1      54.353  69.893  42.153  0.00  0.00    +0.000 C 
BRANCH  16  17
ATOM     17  C   UNL     1      55.555  70.661  42.713  0.00  0.00    +0.000 A 
ATOM     18  C   UNL     1      56.879  70.150  42.757  0.00  0.00    +0.000 A 
ATOM     19  C   UNL     1      55.322  71.953  43.232  0.00  0.00    +0.000 A 
ATOM     20  C   UNL     1      57.888  70.918  43.389  0.00  0.00    +0.000 A 
ATOM     21  C   UNL     1      56.348  72.710  43.803  0.00  0.00    +0.000 A 
ATOM     22  C   UNL     1      57.628  72.185  43.903  0.00  0.00    +0.000 A 
BRANCH  18  26
ATOM     23  F   UNL     1      56.811  68.564  40.905  0.00  0.00    +0.000 F 
ATOM     24  F   UNL     1      58.698  68.859  41.922  0.00  0.00    +0.000 F 
ATOM     25  F   UNL     1      57.112  67.754  42.898  0.00  0.00    +0.000 F 
ATOM     26  C   UNL     1      57.345  68.852  42.127  0.00  0.00    +0.000 C 
ENDBRANCH  18  26
ENDBRANCH  16  17
ENDBRANCH   6  16
BRANCH  10  27
ATOM     27  C   UNL     1      54.865  70.420  37.559  0.00  0.00    +0.000 C 
BRANCH  27  28
ATOM     28  C   UNL     1      56.332  70.588  37.127  0.00  0.00    +0.000 C 
BRANCH  28  29
ATOM     29  N   UNL     1      56.467  70.595  35.665  0.00  0.00    +0.000 NA
ATOM     30  H   UNL     1      55.817  69.959  35.211  0.00  0.00    +0.000 HD
ATOM     31  H   UNL     1      57.407  70.289  35.380  0.00  0.00    +0.000 HD
ENDBRANCH  28  29
BRANCH  28  32
ATOM     32  C   UNL     1      57.315  69.559  37.769  0.00  0.00    +0.000 C 
BRANCH  32  36
ATOM     33  F   UNL     1      60.041  68.654  37.407  0.00  0.00    +0.000 F 
ATOM     34  F   UNL     1      59.241  72.608  41.061  0.00  0.00    +0.000 F 
ATOM     35  F   UNL     1      61.710  71.458  40.780  0.00  0.00    +0.000 F 
ATOM     36  C   UNL     1      58.519  70.118  38.501  0.00  0.00    +0.000 A 
ATOM     37  C   UNL     1      59.814  69.612  38.316  0.00  0.00    +0.000 A 
ATOM     38  C   UNL     1      58.350  71.168  39.418  0.00  0.00    +0.000 A 
ATOM     39  C   UNL     1      59.429  71.623  40.171  0.00  0.00    +0.000 A 
ATOM     40  C   UNL     1      60.892  70.057  39.075  0.00  0.00    +0.000 A 
ATOM     41  C   UNL     1      60.686  71.054  40.017  0.00  0.00    +0.000 A 
ENDBRANCH  32  36
ENDBRANCH  28  32
ENDBRANCH  27  28
ENDBRANCH  10  27
TORSDOF 9
ENDMDL
MODEL 5
REMARK VINA RESULT:      -8.6      3.030      7.379
REMARK  Name = 24776701
REMARK  9 active torsions:
REMARK  status: ('A' for Active; 'I' for Inactive)
REMARK    1  A    between atoms: N_15  and  C_25
REMARK    2  A    between atoms: C_16  and  C_20
REMARK    3  A    between atoms: C_20  and  C_24
REMARK    4  A    between atoms: C_21  and  C_22
REMARK    5  A    between atoms: C_22  and  C_25
REMARK    6  A    between atoms: C_23  and  C_28
REMARK    7  A    between atoms: C_25  and  C_26
REMARK    8  A    between atoms: C_26  and  C_30
REMARK    9  A    between atoms: C_27  and  C_32
REMARK                            x       y       z     vdW  Elec       q    Type
REMARK                         _______ _______ _______ _____ _____    ______ ____
ROOT
ATOM      1  O   UNL     1      52.273  71.173  41.441  0.00  0.00    +0.000 OA
ATOM      2  N   UNL     1      53.577  69.911  40.053  0.00  0.00    +0.000 N 
ATOM      3  N   UNL     1      55.242  70.016  37.818  0.00  0.00    +0.000 N 
ATOM      4  N   UNL     1      54.045  71.460  36.713  0.00  0.00    +0.000 NA
ATOM      5  N   UNL     1      55.207  71.238  36.019  0.00  0.00    +0.000 NA
ATOM      6  C   UNL     1      52.998  70.596  38.851  0.00  0.00    +0.000 C 
ATOM      7  C   UNL     1      54.460  68.767  39.781  0.00  0.00    +0.000 C 
ATOM      8  C   UNL     1      54.061  70.708  37.794  0.00  0.00    +0.000 A 
ATOM      9  C   UNL     1      55.646  69.164  38.910  0.00  0.00    +0.000 C 
ATOM     10  C   UNL     1      53.104  70.268  41.310  0.00  0.00    +0.000 C 
ATOM     11  C   UNL     1      55.945  70.376  36.697  0.00  0.00    +0.000 A 
ENDROOT
BRANCH  11  15
ATOM     12  F   UNL     1      58.271  70.429  37.137  0.00  0.00    +0.000 F 
ATOM     13  F   UNL     1      57.650  70.219  35.068  0.00  0.00    +0.000 F 
ATOM     14  F   UNL     1      57.424  68.547  36.456  0.00  0.00    +0.000 F 
ATOM     15  C   UNL     1      57.304  69.893  36.340  0.00  0.00    +0.000 C 
ENDBRANCH  11  15
BRANCH   6  16
ATOM     16  C   UNL     1      51.719  69.874  38.330  0.00  0.00    +0.000 C 
BRANCH  16  17
ATOM     17  C   UNL     1      50.412  70.674  38.361  0.00  0.00    +0.000 A 
ATOM     18  C   UNL     1      49.130  70.102  38.575  0.00  0.00    +0.000 A 
ATOM     19  C   UNL     1      50.492  72.067  38.147  0.00  0.00    +0.000 A 
ATOM     20  C   UNL     1      47.986  70.932  38.484  0.00  0.00    +0.000 A 
ATOM     21  C   UNL     1      49.349  72.871  38.114  0.00  0.00    +0.000 A 
ATOM     22  C   UNL     1      48.093  72.302  38.260  0.00  0.00    +0.000 A 
BRANCH  18  26
ATOM     23  F   UNL     1      47.571  68.240  38.809  0.00  0.00    +0.000 F 
ATOM     24  F   UNL     1      49.598  67.798  38.192  0.00  0.00    +0.000 F 
ATOM     25  F   UNL     1      49.198  68.362  40.243  0.00  0.00    +0.000 F 
ATOM     26  C   UNL     1      48.861  68.659  38.959  0.00  0.00    +0.000 C 
ENDBRANCH  18  26
ENDBRANCH  16  17
ENDBRANCH   6  16
BRANCH  10  27
ATOM     27  C   UNL     1      53.631  69.558  42.559  0.00  0.00    +0.000 C 
BRANCH  27  28
ATOM     28  C   UNL     1      54.798  70.296  43.239  0.00  0.00    +0.000 C 
BRANCH  28  29
ATOM     29  N   UNL     1      54.779  71.732  42.935  0.00  0.00    +0.000 NA
ATOM     30  H   UNL     1      54.195  72.259  43.580  0.00  0.00    +0.000 HD
ATOM     31  H   UNL     1      54.393  71.905  41.998  0.00  0.00    +0.000 HD
ENDBRANCH  28  29
BRANCH  28  32
ATOM     32  C   UNL     1      56.205  69.686  42.946  0.00  0.00    +0.000 C 
BRANCH  32  36
ATOM     33  F   UNL     1      57.281  71.567  44.865  0.00  0.00    +0.000 F 
ATOM     34  F   UNL     1      59.474  71.631  39.884  0.00  0.00    +0.000 F 
ATOM     35  F   UNL     1      60.192  73.512  41.739  0.00  0.00    +0.000 F 
ATOM     36  C   UNL     1      57.335  70.658  42.668  0.00  0.00    +0.000 A 
ATOM     37  C   UNL     1      57.789  71.578  43.625  0.00  0.00    +0.000 A 
ATOM     38  C   UNL     1      57.950  70.667  41.406  0.00  0.00    +0.000 A 
ATOM     39  C   UNL     1      58.919  71.620  41.104  0.00  0.00    +0.000 A 
ATOM     40  C   UNL     1      58.749  72.538  43.323  0.00  0.00    +0.000 A 
ATOM     41  C   UNL     1      59.298  72.564  42.050  0.00  0.00    +0.000 A 
ENDBRANCH  32  36
ENDBRANCH  28  32
ENDBRANCH  27  28
ENDBRANCH  10  27
TORSDOF 9
ENDMDL
MODEL 6
REMARK VINA RESULT:      -8.6      2.085      2.663
REMARK  Name = 24776701
REMARK  9 active torsions:
REMARK  status: ('A' for Active; 'I' for Inactive)
REMARK    1  A    between atoms: N_15  and  C_25
REMARK    2  A    between atoms: C_16  and  C_20
REMARK    3  A    between atoms: C_20  and  C_24
REMARK    4  A    between atoms: C_21  and  C_22
REMARK    5  A    between atoms: C_22  and  C_25
REMARK    6  A    between atoms: C_23  and  C_28
REMARK    7  A    between atoms: C_25  and  C_26
REMARK    8  A    between atoms: C_26  and  C_30
REMARK    9  A    between atoms: C_27  and  C_32
REMARK                            x       y       z     vdW  Elec       q    Type
REMARK                         _______ _______ _______ _____ _____    ______ ____
ROOT
ATOM      1  O   UNL     1      54.644  71.293  36.530  0.00  0.00    +0.000 OA
ATOM      2  N   UNL     1      54.742  70.799  38.759  0.00  0.00    +0.000 N 
ATOM      3  N   UNL     1      56.278  71.106  41.066  0.00  0.00    +0.000 N 
ATOM      4  N   UNL     1      58.206  70.833  40.092  0.00  0.00    +0.000 NA
ATOM      5  N   UNL     1      58.427  71.187  41.398  0.00  0.00    +0.000 NA
ATOM      6  C   UNL     1      56.183  70.403  38.630  0.00  0.00    +0.000 C 
ATOM      7  C   UNL     1      54.113  70.533  40.061  0.00  0.00    +0.000 C 
ATOM      8  C   UNL     1      56.905  70.770  39.895  0.00  0.00    +0.000 A 
ATOM      9  C   UNL     1      54.848  71.237  41.196  0.00  0.00    +0.000 C 
ATOM     10  C   UNL     1      54.062  71.201  37.615  0.00  0.00    +0.000 C 
ATOM     11  C   UNL     1      57.258  71.372  41.988  0.00  0.00    +0.000 A 
ENDROOT
BRANCH  11  15
ATOM     12  F   UNL     1      57.887  71.229  44.266  0.00  0.00    +0.000 F 
ATOM     13  F   UNL     1      55.780  71.508  43.826  0.00  0.00    +0.000 F 
ATOM     14  F   UNL     1      57.188  73.155  43.540  0.00  0.00    +0.000 F 
ATOM     15  C   UNL     1      57.027  71.816  43.387  0.00  0.00    +0.000 C 
ENDBRANCH  11  15
BRANCH   6  16
ATOM     16  C   UNL     1      56.342  68.894  38.273  0.00  0.00    +0.000 C 
BRANCH  16  17
ATOM     17  C   UNL     1      56.655  68.557  36.811  0.00  0.00    +0.000 A 
ATOM     18  C   UNL     1      57.951  68.622  36.236  0.00  0.00    +0.000 A 
ATOM     19  C   UNL     1      55.577  68.174  35.984  0.00  0.00    +0.000 A 
ATOM     20  C   UNL     1      58.097  68.381  34.848  0.00  0.00    +0.000 A 
ATOM     21  C   UNL     1      55.759  67.891  34.627  0.00  0.00    +0.000 A 
ATOM     22  C   UNL     1      57.015  68.017  34.052  0.00  0.00    +0.000 A 
BRANCH  18  26
ATOM     23  F   UNL     1      59.537  70.186  37.232  0.00  0.00    +0.000 F 
ATOM     24  F   UNL     1      59.208  68.296  38.233  0.00  0.00    +0.000 F 
ATOM     25  F   UNL     1      60.342  68.352  36.390  0.00  0.00    +0.000 F 
ATOM     26  C   UNL     1      59.240  68.875  36.994  0.00  0.00    +0.000 C 
ENDBRANCH  18  26
ENDBRANCH  16  17
ENDBRANCH   6  16
BRANCH  10  27
ATOM     27  C   UNL     1      52.577  71.565  37.694  0.00  0.00    +0.000 C 
BRANCH  27  28
ATOM     28  C   UNL     1      51.638  70.371  37.446  0.00  0.00    +0.000 C 
BRANCH  28  29
ATOM     29  N   UNL     1      51.944  69.697  36.179  0.00  0.00    +0.000 NA
ATOM     30  H   UNL     1      51.536  70.172  35.377  0.00  0.00    +0.000 HD
ATOM     31  H   UNL     1      51.561  68.743  36.167  0.00  0.00    +0.000 HD
ENDBRANCH  28  29
BRANCH  28  32
ATOM     32  C   UNL     1      50.118  70.717  37.537  0.00  0.00    +0.000 C 
BRANCH  32  36
ATOM     33  F   UNL     1      50.237  69.794  40.278  0.00  0.00    +0.000 F 
ATOM     34  F   UNL     1      48.138  74.748  39.455  0.00  0.00    +0.000 F 
ATOM     35  F   UNL     1      48.089  73.618  41.949  0.00  0.00    +0.000 F 
ATOM     36  C   UNL     1      49.662  71.516  38.742  0.00  0.00    +0.000 A 
ATOM     37  C   UNL     1      49.705  71.002  40.047  0.00  0.00    +0.000 A 
ATOM     38  C   UNL     1      49.157  72.814  38.565  0.00  0.00    +0.000 A 
ATOM     39  C   UNL     1      48.642  73.521  39.649  0.00  0.00    +0.000 A 
ATOM     40  C   UNL     1      49.181  71.700  41.130  0.00  0.00    +0.000 A 
ATOM     41  C   UNL     1      48.633  72.957  40.919  0.00  0.00    +0.000 A 
ENDBRANCH  32  36
ENDBRANCH  28  32
ENDBRANCH  27  28
ENDBRANCH  10  27
TORSDOF 9
ENDMDL
MODEL 7
REMARK VINA RESULT:      -8.6      2.664      3.690
REMARK  Name = 24776701
REMARK  9 active torsions:
REMARK  status: ('A' for Active; 'I' for Inactive)
REMARK    1  A    between atoms: N_15  and  C_25
REMARK    2  A    between atoms: C_16  and  C_20
REMARK    3  A    between atoms: C_20  and  C_24
REMARK    4  A    between atoms: C_21  and  C_22
REMARK    5  A    between atoms: C_22  and  C_25
REMARK    6  A    between atoms: C_23  and  C_28
REMARK    7  A    between atoms: C_25  and  C_26
REMARK    8  A    between atoms: C_26  and  C_30
REMARK    9  A    between atoms: C_27  and  C_32
REMARK                            x       y       z     vdW  Elec       q    Type
REMARK                         _______ _______ _______ _____ _____    ______ ____
ROOT
ATOM      1  O   UNL     1      54.618  71.618  36.475  0.00  0.00    +0.000 OA
ATOM      2  N   UNL     1      54.923  71.034  38.663  0.00  0.00    +0.000 N 
ATOM      3  N   UNL     1      56.536  71.452  40.900  0.00  0.00    +0.000 N 
ATOM      4  N   UNL     1      58.420  71.521  39.810  0.00  0.00    +0.000 NA
ATOM      5  N   UNL     1      58.665  71.838  41.122  0.00  0.00    +0.000 NA
ATOM      6  C   UNL     1      56.396  70.866  38.435  0.00  0.00    +0.000 C 
ATOM      7  C   UNL     1      54.421  70.612  39.979  0.00  0.00    +0.000 C 
ATOM      8  C   UNL     1      57.133  71.273  39.680  0.00  0.00    +0.000 A 
ATOM      9  C   UNL     1      55.113  71.361  41.113  0.00  0.00    +0.000 C 
ATOM     10  C   UNL     1      54.123  71.387  37.583  0.00  0.00    +0.000 C 
ATOM     11  C   UNL     1      57.521  71.816  41.782  0.00  0.00    +0.000 A 
ENDROOT
BRANCH  11  15
ATOM     12  F   UNL     1      56.182  72.880  43.419  0.00  0.00    +0.000 F 
ATOM     13  F   UNL     1      58.331  72.891  43.725  0.00  0.00    +0.000 F 
ATOM     14  F   UNL     1      57.194  71.044  43.993  0.00  0.00    +0.000 F 
ATOM     15  C   UNL     1      57.313  72.150  43.215  0.00  0.00    +0.000 C 
ENDBRANCH  11  15
BRANCH   6  16
ATOM     16  C   UNL     1      56.753  69.417  37.983  0.00  0.00    +0.000 C 
BRANCH  16  17
ATOM     17  C   UNL     1      57.715  68.630  38.878  0.00  0.00    +0.000 A 
ATOM     18  C   UNL     1      59.070  68.361  38.552  0.00  0.00    +0.000 A 
ATOM     19  C   UNL     1      57.212  68.129  40.098  0.00  0.00    +0.000 A 
ATOM     20  C   UNL     1      59.833  67.538  39.417  0.00  0.00    +0.000 A 
ATOM     21  C   UNL     1      58.003  67.362  40.958  0.00  0.00    +0.000 A 
ATOM     22  C   UNL     1      59.307  67.046  40.609  0.00  0.00    +0.000 A 
BRANCH  18  26
ATOM     23  F   UNL     1      59.374  68.531  36.137  0.00  0.00    +0.000 F 
ATOM     24  F   UNL     1      59.741  70.296  37.335  0.00  0.00    +0.000 F 
ATOM     25  F   UNL     1      61.154  68.657  37.376  0.00  0.00    +0.000 F 
ATOM     26  C   UNL     1      59.821  68.930  37.363  0.00  0.00    +0.000 C 
ENDBRANCH  18  26
ENDBRANCH  16  17
ENDBRANCH   6  16
BRANCH  10  27
ATOM     27  C   UNL     1      52.608  71.520  37.761  0.00  0.00    +0.000 C 
BRANCH  27  28
ATOM     28  C   UNL     1      51.840  70.214  37.490  0.00  0.00    +0.000 C 
BRANCH  28  29
ATOM     29  N   UNL     1      52.151  69.671  36.161  0.00  0.00    +0.000 NA
ATOM     30  H   UNL     1      51.425  69.874  35.479  0.00  0.00    +0.000 HD
ATOM     31  H   UNL     1      52.232  68.647  36.192  0.00  0.00    +0.000 HD
ENDBRANCH  28  29
BRANCH  28  32
ATOM     32  C   UNL     1      50.297  70.318  37.698  0.00  0.00    +0.000 C 
BRANCH  32  36
ATOM     33  F   UNL     1      50.520  69.670  40.511  0.00  0.00    +0.000 F 
ATOM     34  F   UNL     1      48.098  74.384  39.273  0.00  0.00    +0.000 F 
ATOM     35  F   UNL     1      48.161  73.495  41.862  0.00  0.00    +0.000 F 
ATOM     36  C   UNL     1      49.812  71.199  38.833  0.00  0.00    +0.000 A 
ATOM     37  C   UNL     1      49.908  70.814  40.179  0.00  0.00    +0.000 A 
ATOM     38  C   UNL     1      49.222  72.441  38.546  0.00  0.00    +0.000 A 
ATOM     39  C   UNL     1      48.682  73.214  39.571  0.00  0.00    +0.000 A 
ATOM     40  C   UNL     1      49.359  71.580  41.203  0.00  0.00    +0.000 A 
ATOM     41  C   UNL     1      48.729  72.774  40.887  0.00  0.00    +0.000 A 
ENDBRANCH  32  36
ENDBRANCH  28  32
ENDBRANCH  27  28
ENDBRANCH  10  27
TORSDOF 9
ENDMDL
MODEL 8
REMARK VINA RESULT:      -8.4      5.097      8.700
REMARK  Name = 24776701
REMARK  9 active torsions:
REMARK  status: ('A' for Active; 'I' for Inactive)
REMARK    1  A    between atoms: N_15  and  C_25
REMARK    2  A    between atoms: C_16  and  C_20
REMARK    3  A    between atoms: C_20  and  C_24
REMARK    4  A    between atoms: C_21  and  C_22
REMARK    5  A    between atoms: C_22  and  C_25
REMARK    6  A    between atoms: C_23  and  C_28
REMARK    7  A    between atoms: C_25  and  C_26
REMARK    8  A    between atoms: C_26  and  C_30
REMARK    9  A    between atoms: C_27  and  C_32
REMARK                            x       y       z     vdW  Elec       q    Type
REMARK                         _______ _______ _______ _____ _____    ______ ____
ROOT
ATOM      1  O   UNL     1      55.359  69.259  39.955  0.00  0.00    +0.000 OA
ATOM      2  N   UNL     1      57.175  67.886  40.145  0.00  0.00    +0.000 N 
ATOM      3  N   UNL     1      58.435  66.038  41.811  0.00  0.00    +0.000 N 
ATOM      4  N   UNL     1      58.019  67.090  43.671  0.00  0.00    +0.000 NA
ATOM      5  N   UNL     1      58.593  65.882  43.975  0.00  0.00    +0.000 NA
ATOM      6  C   UNL     1      57.398  68.339  41.557  0.00  0.00    +0.000 C 
ATOM      7  C   UNL     1      58.218  67.021  39.573  0.00  0.00    +0.000 C 
ATOM      8  C   UNL     1      57.937  67.190  42.360  0.00  0.00    +0.000 A 
ATOM      9  C   UNL     1      58.415  65.754  40.397  0.00  0.00    +0.000 C 
ATOM     10  C   UNL     1      56.128  68.450  39.426  0.00  0.00    +0.000 C 
ATOM     11  C   UNL     1      58.829  65.232  42.849  0.00  0.00    +0.000 A 
ENDROOT
BRANCH  11  15
ATOM     12  F   UNL     1      60.512  63.840  41.935  0.00  0.00    +0.000 F 
ATOM     13  F   UNL     1      58.519  63.002  42.131  0.00  0.00    +0.000 F 
ATOM     14  F   UNL     1      59.751  63.329  43.906  0.00  0.00    +0.000 F 
ATOM     15  C   UNL     1      59.393  63.864  42.712  0.00  0.00    +0.000 C 
ENDBRANCH  11  15
BRANCH   6  16
ATOM     16  C   UNL     1      58.320  69.594  41.626  0.00  0.00    +0.000 C 
BRANCH  16  17
ATOM     17  C   UNL     1      57.805  70.788  42.438  0.00  0.00    +0.000 A 
ATOM     18  C   UNL     1      58.512  72.008  42.599  0.00  0.00    +0.000 A 
ATOM     19  C   UNL     1      56.554  70.653  43.077  0.00  0.00    +0.000 A 
ATOM     20  C   UNL     1      57.975  73.002  43.454  0.00  0.00    +0.000 A 
ATOM     21  C   UNL     1      56.024  71.672  43.873  0.00  0.00    +0.000 A 
ATOM     22  C   UNL     1      56.744  72.838  44.082  0.00  0.00    +0.000 A 
BRANCH  18  26
ATOM     23  F   UNL     1      60.813  71.486  41.979  0.00  0.00    +0.000 F 
ATOM     24  F   UNL     1      59.584  72.530  40.537  0.00  0.00    +0.000 F 
ATOM     25  F   UNL     1      60.315  73.578  42.284  0.00  0.00    +0.000 F 
ATOM     26  C   UNL     1      59.793  72.387  41.882  0.00  0.00    +0.000 C 
ENDBRANCH  18  26
ENDBRANCH  16  17
ENDBRANCH   6  16
BRANCH  10  27
ATOM     27  C   UNL     1      55.897  68.052  37.966  0.00  0.00    +0.000 C 
BRANCH  27  28
ATOM     28  C   UNL     1      55.425  69.218  37.079  0.00  0.00    +0.000 C 
BRANCH  28  29
ATOM     29  N   UNL     1      54.328  68.811  36.192  0.00  0.00    +0.000 NA
ATOM     30  H   UNL     1      54.324  67.810  36.012  0.00  0.00    +0.000 HD
ATOM     31  H   UNL     1      54.411  69.262  35.272  0.00  0.00    +0.000 HD
ENDBRANCH  28  29
BRANCH  28  32
ATOM     32  C   UNL     1      56.564  69.914  36.269  0.00  0.00    +0.000 C 
BRANCH  32  36
ATOM     33  F   UNL     1      57.933  67.654  35.085  0.00  0.00    +0.000 F 
ATOM     34  F   UNL     1      60.712  70.542  38.767  0.00  0.00    +0.000 F 
ATOM     35  F   UNL     1      61.758  68.229  37.742  0.00  0.00    +0.000 F 
ATOM     36  C   UNL     1      57.987  69.499  36.584  0.00  0.00    +0.000 A 
ATOM     37  C   UNL     1      58.588  68.369  36.010  0.00  0.00    +0.000 A 
ATOM     38  C   UNL     1      58.744  70.251  37.497  0.00  0.00    +0.000 A 
ATOM     39  C   UNL     1      60.016  69.826  37.872  0.00  0.00    +0.000 A 
ATOM     40  C   UNL     1      59.854  67.935  36.391  0.00  0.00    +0.000 A 
ATOM     41  C   UNL     1      60.556  68.662  37.340  0.00  0.00    +0.000 A 
ENDBRANCH  32  36
ENDBRANCH  28  32
ENDBRANCH  27  28
ENDBRANCH  10  27
TORSDOF 9
ENDMDL
MODEL 9
REMARK VINA RESULT:      -8.3     25.591     28.008
REMARK  Name = 24776701
REMARK  9 active torsions:
REMARK  status: ('A' for Active; 'I' for Inactive)
REMARK    1  A    between atoms: N_15  and  C_25
REMARK    2  A    between atoms: C_16  and  C_20
REMARK    3  A    between atoms: C_20  and  C_24
REMARK    4  A    between atoms: C_21  and  C_22
REMARK    5  A    between atoms: C_22  and  C_25
REMARK    6  A    between atoms: C_23  and  C_28
REMARK    7  A    between atoms: C_25  and  C_26
REMARK    8  A    between atoms: C_26  and  C_30
REMARK    9  A    between atoms: C_27  and  C_32
REMARK                            x       y       z     vdW  Elec       q    Type
REMARK                         _______ _______ _______ _____ _____    ______ ____
ROOT
ATOM      1  O   UNL     1      38.880  52.006  46.777  0.00  0.00    +0.000 OA
ATOM      2  N   UNL     1      37.046  51.394  47.994  0.00  0.00    +0.000 N 
ATOM      3  N   UNL     1      36.222  50.191  50.372  0.00  0.00    +0.000 N 
ATOM      4  N   UNL     1      37.755  48.646  50.386  0.00  0.00    +0.000 NA
ATOM      5  N   UNL     1      37.056  48.575  51.564  0.00  0.00    +0.000 NA
ATOM      6  C   UNL     1      37.658  50.056  48.284  0.00  0.00    +0.000 C 
ATOM      7  C   UNL     1      35.652  51.573  48.424  0.00  0.00    +0.000 C 
ATOM      8  C   UNL     1      37.240  49.615  49.659  0.00  0.00    +0.000 A 
ATOM      9  C   UNL     1      35.491  51.352  49.924  0.00  0.00    +0.000 C 
ATOM     10  C   UNL     1      37.750  52.283  47.191  0.00  0.00    +0.000 C 
ATOM     11  C   UNL     1      36.137  49.524  51.567  0.00  0.00    +0.000 A 
ENDROOT
BRANCH  11  15
ATOM     12  F   UNL     1      35.340  51.121  53.122  0.00  0.00    +0.000 F 
ATOM     13  F   UNL     1      35.369  49.043  53.749  0.00  0.00    +0.000 F 
ATOM     14  F   UNL     1      33.895  49.728  52.289  0.00  0.00    +0.000 F 
ATOM     15  C   UNL     1      35.192  49.846  52.668  0.00  0.00    +0.000 C 
ENDBRANCH  11  15
BRANCH   6  16
ATOM     16  C   UNL     1      37.303  49.004  47.191  0.00  0.00    +0.000 C 
BRANCH  16  17
ATOM     17  C   UNL     1      38.304  48.831  46.044  0.00  0.00    +0.000 A 
ATOM     18  C   UNL     1      38.075  49.264  44.712  0.00  0.00    +0.000 A 
ATOM     19  C   UNL     1      39.526  48.186  46.334  0.00  0.00    +0.000 A 
ATOM     20  C   UNL     1      39.038  48.960  43.718  0.00  0.00    +0.000 A 
ATOM     21  C   UNL     1      40.481  47.946  45.343  0.00  0.00    +0.000 A 
ATOM     22  C   UNL     1      40.229  48.311  44.029  0.00  0.00    +0.000 A 
BRANCH  18  26
ATOM     23  F   UNL     1      37.206  51.247  43.588  0.00  0.00    +0.000 F 
ATOM     24  F   UNL     1      36.116  49.392  43.363  0.00  0.00    +0.000 F 
ATOM     25  F   UNL     1      36.048  50.456  45.247  0.00  0.00    +0.000 F 
ATOM     26  C   UNL     1      36.894  50.092  44.244  0.00  0.00    +0.000 C 
ENDBRANCH  18  26
ENDBRANCH  16  17
ENDBRANCH   6  16
BRANCH  10  27
ATOM     27  C   UNL     1      37.139  53.639  46.829  0.00  0.00    +0.000 C 
BRANCH  27  28
ATOM     28  C   UNL     1      36.562  53.692  45.403  0.00  0.00    +0.000 C 
BRANCH  28  29
ATOM     29  N   UNL     1      37.422  54.469  44.501  0.00  0.00    +0.000 NA
ATOM     30  H   UNL     1      37.911  53.882  43.829  0.00  0.00    +0.000 HD
ATOM     31  H   UNL     1      38.152  54.966  45.026  0.00  0.00    +0.000 HD
ENDBRANCH  28  29
BRANCH  28  32
ATOM     32  C   UNL     1      35.084  54.189  45.323  0.00  0.00    +0.000 C 
BRANCH  32  36
ATOM     33  F   UNL     1      35.734  57.009  45.252  0.00  0.00    +0.000 F 
ATOM     34  F   UNL     1      32.763  55.292  49.475  0.00  0.00    +0.000 F 
ATOM     35  F   UNL     1      33.683  57.869  49.384  0.00  0.00    +0.000 F 
ATOM     36  C   UNL     1      34.642  55.208  46.355  0.00  0.00    +0.000 A 
ATOM     37  C   UNL     1      35.022  56.557  46.292  0.00  0.00    +0.000 A 
ATOM     38  C   UNL     1      33.838  54.803  47.433  0.00  0.00    +0.000 A 
ATOM     39  C   UNL     1      33.508  55.706  48.440  0.00  0.00    +0.000 A 
ATOM     40  C   UNL     1      34.703  57.458  47.303  0.00  0.00    +0.000 A 
ATOM     41  C   UNL     1      33.959  57.018  48.387  0.00  0.00    +0.000 A 
ENDBRANCH  32  36
ENDBRANCH  28  32
ENDBRANCH  27  28
ENDBRANCH  10  27
TORSDOF 9
ENDMDL
