MODEL 1
REMARK VINA RESULT:      -8.3      0.000      0.000
REMARK  Name = 24776692
REMARK  8 active torsions:
REMARK  status: ('A' for Active; 'I' for Inactive)
REMARK    1  A    between atoms: N_12  and  C_20
REMARK    2  A    between atoms: C_13  and  C_17
REMARK    3  A    between atoms: C_17  and  C_23
REMARK    4  A    between atoms: C_18  and  C_19
REMARK    5  A    between atoms: C_19  and  C_20
REMARK    6  A    between atoms: C_20  and  C_22
REMARK    7  A    between atoms: C_21  and  C_24
REMARK    8  A    between atoms: C_22  and  C_25
REMARK                            x       y       z     vdW  Elec       q    Type
REMARK                         _______ _______ _______ _____ _____    ______ ____
ROOT
ATOM      1  O   UNL     1      50.378  48.686  34.027  0.00  0.00    +0.000 OA
ATOM      2  N   UNL     1      51.701  49.604  35.681  0.00  0.00    +0.000 N 
ATOM      3  N   UNL     1      54.094  50.573  36.756  0.00  0.00    +0.000 N 
ATOM      4  N   UNL     1      55.426  49.292  35.606  0.00  0.00    +0.000 NA
ATOM      5  N   UNL     1      56.188  50.168  36.341  0.00  0.00    +0.000 NA
ATOM      6  C   UNL     1      52.933  48.860  35.265  0.00  0.00    +0.000 C 
ATOM      7  C   UNL     1      51.729  50.096  37.066  0.00  0.00    +0.000 C 
ATOM      8  C   UNL     1      52.854  51.095  37.276  0.00  0.00    +0.000 C 
ATOM      9  C   UNL     1      54.156  49.553  35.840  0.00  0.00    +0.000 A 
ATOM     10  C   UNL     1      50.491  49.423  35.002  0.00  0.00    +0.000 C 
ATOM     11  C   UNL     1      55.380  50.949  37.038  0.00  0.00    +0.000 A 
ENDROOT
BRANCH  11  15
ATOM     12  F   UNL     1      57.124  52.205  38.043  0.00  0.00    +0.000 F 
ATOM     13  F   UNL     1      55.368  51.792  39.250  0.00  0.00    +0.000 F 
ATOM     14  F   UNL     1      55.262  53.237  37.614  0.00  0.00    +0.000 F 
ATOM     15  C   UNL     1      55.773  52.033  37.977  0.00  0.00    +0.000 C 
ENDBRANCH  11  15
BRANCH   6  16
ATOM     16  C   UNL     1      53.151  48.586  33.752  0.00  0.00    +0.000 C 
BRANCH  16  17
ATOM     17  C   UNL     1      53.375  47.141  33.380  0.00  0.00    +0.000 C 
ATOM     18  C   UNL     1      54.231  46.338  34.023  0.00  0.00    +0.000 C 
ENDBRANCH  16  17
ENDBRANCH   6  16
BRANCH  10  19
ATOM     19  C   UNL     1      49.299  50.235  35.510  0.00  0.00    +0.000 C 
BRANCH  19  20
ATOM     20  C   UNL     1      48.780  51.321  34.545  0.00  0.00    +0.000 C 
BRANCH  20  21
ATOM     21  N   UNL     1      49.949  52.121  34.112  0.00  0.00    +0.000 NA
ATOM     22  H   UNL     1      50.234  52.731  34.878  0.00  0.00    +0.000 HD
ATOM     23  H   UNL     1      49.694  52.744  33.346  0.00  0.00    +0.000 HD
ENDBRANCH  20  21
BRANCH  20  24
ATOM     24  C   UNL     1      47.754  52.246  35.245  0.00  0.00    +0.000 C 
BRANCH  24  28
ATOM     25  F   UNL     1      46.661  51.034  37.637  0.00  0.00    +0.000 F 
ATOM     26  F   UNL     1      43.192  52.058  33.562  0.00  0.00    +0.000 F 
ATOM     27  F   UNL     1      42.272  51.086  35.952  0.00  0.00    +0.000 F 
ATOM     28  C   UNL     1      46.325  51.776  35.404  0.00  0.00    +0.000 A 
ATOM     29  C   UNL     1      45.831  51.260  36.611  0.00  0.00    +0.000 A 
ATOM     30  C   UNL     1      45.408  52.022  34.367  0.00  0.00    +0.000 A 
ATOM     31  C   UNL     1      44.049  51.777  34.552  0.00  0.00    +0.000 A 
ATOM     32  C   UNL     1      44.472  51.011  36.796  0.00  0.00    +0.000 A 
ATOM     33  C   UNL     1      43.583  51.285  35.766  0.00  0.00    +0.000 A 
ENDBRANCH  24  28
ENDBRANCH  20  24
ENDBRANCH  19  20
ENDBRANCH  10  19
TORSDOF 8
ENDMDL
MODEL 2
REMARK VINA RESULT:      -8.3     20.335     21.654
REMARK  Name = 24776692
REMARK  8 active torsions:
REMARK  status: ('A' for Active; 'I' for Inactive)
REMARK    1  A    between atoms: N_12  and  C_20
REMARK    2  A    between atoms: C_13  and  C_17
REMARK    3  A    between atoms: C_17  and  C_23
REMARK    4  A    between atoms: C_18  and  C_19
REMARK    5  A    between atoms: C_19  and  C_20
REMARK    6  A    between atoms: C_20  and  C_22
REMARK    7  A    between atoms: C_21  and  C_24
REMARK    8  A    between atoms: C_22  and  C_25
REMARK                            x       y       z     vdW  Elec       q    Type
REMARK                         _______ _______ _______ _____ _____    ______ ____
ROOT
ATOM      1  O   UNL     1      54.536  71.361  36.324  0.00  0.00    +0.000 OA
ATOM      2  N   UNL     1      54.921  71.089  38.584  0.00  0.00    +0.000 N 
ATOM      3  N   UNL     1      56.427  71.286  40.932  0.00  0.00    +0.000 N 
ATOM      4  N   UNL     1      58.383  71.110  39.994  0.00  0.00    +0.000 NA
ATOM      5  N   UNL     1      58.561  71.360  41.334  0.00  0.00    +0.000 NA
ATOM      6  C   UNL     1      56.392  70.853  38.418  0.00  0.00    +0.000 C 
ATOM      7  C   UNL     1      54.365  70.586  39.848  0.00  0.00    +0.000 C 
ATOM      8  C   UNL     1      54.989  71.285  41.044  0.00  0.00    +0.000 C 
ATOM      9  C   UNL     1      57.091  71.089  39.746  0.00  0.00    +0.000 A 
ATOM     10  C   UNL     1      54.102  71.312  37.471  0.00  0.00    +0.000 C 
ATOM     11  C   UNL     1      57.373  71.470  41.904  0.00  0.00    +0.000 A 
ENDROOT
BRANCH  11  15
ATOM     12  F   UNL     1      56.138  70.894  43.847  0.00  0.00    +0.000 F 
ATOM     13  F   UNL     1      56.638  72.987  43.566  0.00  0.00    +0.000 F 
ATOM     14  F   UNL     1      58.190  71.551  44.119  0.00  0.00    +0.000 F 
ATOM     15  C   UNL     1      57.091  71.727  43.341  0.00  0.00    +0.000 C 
ENDBRANCH  11  15
BRANCH   6  16
ATOM     16  C   UNL     1      57.138  71.618  37.292  0.00  0.00    +0.000 C 
BRANCH  16  17
ATOM     17  C   UNL     1      57.960  70.763  36.361  0.00  0.00    +0.000 C 
ATOM     18  C   UNL     1      57.594  69.536  35.969  0.00  0.00    +0.000 C 
ENDBRANCH  16  17
ENDBRANCH   6  16
BRANCH  10  19
ATOM     19  C   UNL     1      52.619  71.544  37.756  0.00  0.00    +0.000 C 
BRANCH  19  20
ATOM     20  C   UNL     1      51.714  70.305  37.597  0.00  0.00    +0.000 C 
BRANCH  20  21
ATOM     21  N   UNL     1      51.985  69.728  36.261  0.00  0.00    +0.000 NA
ATOM     22  H   UNL     1      52.350  70.461  35.652  0.00  0.00    +0.000 HD
ATOM     23  H   UNL     1      51.119  69.414  35.823  0.00  0.00    +0.000 HD
ENDBRANCH  20  21
BRANCH  20  24
ATOM     24  C   UNL     1      50.216  70.690  37.698  0.00  0.00    +0.000 C 
BRANCH  24  28
ATOM     25  F   UNL     1      49.310  73.424  37.407  0.00  0.00    +0.000 F 
ATOM     26  F   UNL     1      48.941  71.199  42.366  0.00  0.00    +0.000 F 
ATOM     27  F   UNL     1      47.952  73.709  41.900  0.00  0.00    +0.000 F 
ATOM     28  C   UNL     1      49.757  71.577  38.834  0.00  0.00    +0.000 A 
ATOM     29  C   UNL     1      49.261  72.873  38.625  0.00  0.00    +0.000 A 
ATOM     30  C   UNL     1      49.657  71.031  40.126  0.00  0.00    +0.000 A 
ATOM     31  C   UNL     1      49.061  71.756  41.155  0.00  0.00    +0.000 A 
ATOM     32  C   UNL     1      48.668  73.601  39.656  0.00  0.00    +0.000 A 
ATOM     33  C   UNL     1      48.557  73.031  40.917  0.00  0.00    +0.000 A 
ENDBRANCH  24  28
ENDBRANCH  20  24
ENDBRANCH  19  20
ENDBRANCH  10  19
TORSDOF 8
ENDMDL
MODEL 3
REMARK VINA RESULT:      -8.0     12.177     15.895
REMARK  Name = 24776692
REMARK  8 active torsions:
REMARK  status: ('A' for Active; 'I' for Inactive)
REMARK    1  A    between atoms: N_12  and  C_20
REMARK    2  A    between atoms: C_13  and  C_17
REMARK    3  A    between atoms: C_17  and  C_23
REMARK    4  A    between atoms: C_18  and  C_19
REMARK    5  A    between atoms: C_19  and  C_20
REMARK    6  A    between atoms: C_20  and  C_22
REMARK    7  A    between atoms: C_21  and  C_24
REMARK    8  A    between atoms: C_22  and  C_25
REMARK                            x       y       z     vdW  Elec       q    Type
REMARK                         _______ _______ _______ _____ _____    ______ ____
ROOT
ATOM      1  O   UNL     1      39.777  52.462  40.015  0.00  0.00    +0.000 OA
ATOM      2  N   UNL     1      37.987  51.515  38.907  0.00  0.00    +0.000 N 
ATOM      3  N   UNL     1      36.777  50.004  36.888  0.00  0.00    +0.000 N 
ATOM      4  N   UNL     1      38.247  50.425  35.340  0.00  0.00    +0.000 NA
ATOM      5  N   UNL     1      37.341  49.517  34.848  0.00  0.00    +0.000 NA
ATOM      6  C   UNL     1      38.611  51.648  37.551  0.00  0.00    +0.000 C 
ATOM      7  C   UNL     1      36.524  51.365  38.888  0.00  0.00    +0.000 C 
ATOM      8  C   UNL     1      36.107  50.098  38.162  0.00  0.00    +0.000 C 
ATOM      9  C   UNL     1      37.919  50.702  36.584  0.00  0.00    +0.000 A 
ATOM     10  C   UNL     1      38.653  51.969  40.050  0.00  0.00    +0.000 C 
ATOM     11  C   UNL     1      36.448  49.258  35.788  0.00  0.00    +0.000 A 
ENDROOT
BRANCH  11  15
ATOM     12  F   UNL     1      34.090  49.000  35.751  0.00  0.00    +0.000 F 
ATOM     13  F   UNL     1      35.252  47.424  36.687  0.00  0.00    +0.000 F 
ATOM     14  F   UNL     1      35.267  47.658  34.513  0.00  0.00    +0.000 F 
ATOM     15  C   UNL     1      35.282  48.342  35.687  0.00  0.00    +0.000 C 
ENDBRANCH  11  15
BRANCH   6  16
ATOM     16  C   UNL     1      40.151  51.482  37.431  0.00  0.00    +0.000 C 
BRANCH  16  17
ATOM     17  C   UNL     1      40.856  52.546  36.627  0.00  0.00    +0.000 C 
ATOM     18  C   UNL     1      42.073  52.383  36.093  0.00  0.00    +0.000 C 
ENDBRANCH  16  17
ENDBRANCH   6  16
BRANCH  10  19
ATOM     19  C   UNL     1      37.925  51.781  41.380  0.00  0.00    +0.000 C 
BRANCH  19  20
ATOM     20  C   UNL     1      37.299  53.059  41.978  0.00  0.00    +0.000 C 
BRANCH  20  21
ATOM     21  N   UNL     1      37.977  53.321  43.267  0.00  0.00    +0.000 NA
ATOM     22  H   UNL     1      37.328  53.798  43.892  0.00  0.00    +0.000 HD
ATOM     23  H   UNL     1      38.757  53.966  43.138  0.00  0.00    +0.000 HD
ENDBRANCH  20  21
BRANCH  20  24
ATOM     24  C   UNL     1      35.780  52.874  42.223  0.00  0.00    +0.000 C 
BRANCH  24  28
ATOM     25  F   UNL     1      36.064  50.557  43.936  0.00  0.00    +0.000 F 
ATOM     26  F   UNL     1      33.882  55.032  46.149  0.00  0.00    +0.000 F 
ATOM     27  F   UNL     1      34.382  52.827  47.695  0.00  0.00    +0.000 F 
ATOM     28  C   UNL     1      35.268  52.777  43.643  0.00  0.00    +0.000 A 
ATOM     29  C   UNL     1      35.497  51.654  44.452  0.00  0.00    +0.000 A 
ATOM     30  C   UNL     1      34.696  53.915  44.239  0.00  0.00    +0.000 A 
ATOM     31  C   UNL     1      34.389  53.922  45.598  0.00  0.00    +0.000 A 
ATOM     32  C   UNL     1      35.186  51.659  45.811  0.00  0.00    +0.000 A 
ATOM     33  C   UNL     1      34.645  52.803  46.382  0.00  0.00    +0.000 A 
ENDBRANCH  24  28
ENDBRANCH  20  24
ENDBRANCH  19  20
ENDBRANCH  10  19
TORSDOF 8
ENDMDL
MODEL 4
REMARK VINA RESULT:      -7.8     13.845     16.758
REMARK  Name = 24776692
REMARK  8 active torsions:
REMARK  status: ('A' for Active; 'I' for Inactive)
REMARK    1  A    between atoms: N_12  and  C_20
REMARK    2  A    between atoms: C_13  and  C_17
REMARK    3  A    between atoms: C_17  and  C_23
REMARK    4  A    between atoms: C_18  and  C_19
REMARK    5  A    between atoms: C_19  and  C_20
REMARK    6  A    between atoms: C_20  and  C_22
REMARK    7  A    between atoms: C_21  and  C_24
REMARK    8  A    between atoms: C_22  and  C_25
REMARK                            x       y       z     vdW  Elec       q    Type
REMARK                         _______ _______ _______ _____ _____    ______ ____
ROOT
ATOM      1  O   UNL     1      36.722  53.651  41.209  0.00  0.00    +0.000 OA
ATOM      2  N   UNL     1      36.915  51.846  42.635  0.00  0.00    +0.000 N 
ATOM      3  N   UNL     1      36.629  50.511  45.075  0.00  0.00    +0.000 N 
ATOM      4  N   UNL     1      36.820  52.266  46.349  0.00  0.00    +0.000 NA
ATOM      5  N   UNL     1      36.525  51.181  47.139  0.00  0.00    +0.000 NA
ATOM      6  C   UNL     1      37.145  52.689  43.853  0.00  0.00    +0.000 C 
ATOM      7  C   UNL     1      37.380  50.457  42.762  0.00  0.00    +0.000 C 
ATOM      8  C   UNL     1      36.637  49.724  43.866  0.00  0.00    +0.000 C 
ATOM      9  C   UNL     1      36.860  51.864  45.095  0.00  0.00    +0.000 A 
ATOM     10  C   UNL     1      36.735  52.436  41.379  0.00  0.00    +0.000 C 
ATOM     11  C   UNL     1      36.406  50.115  46.367  0.00  0.00    +0.000 A 
ENDROOT
BRANCH  11  15
ATOM     12  F   UNL     1      35.007  48.208  46.177  0.00  0.00    +0.000 F 
ATOM     13  F   UNL     1      35.846  48.638  48.131  0.00  0.00    +0.000 F 
ATOM     14  F   UNL     1      37.122  47.870  46.531  0.00  0.00    +0.000 F 
ATOM     15  C   UNL     1      36.103  48.725  46.800  0.00  0.00    +0.000 C 
ENDBRANCH  11  15
BRANCH   6  16
ATOM     16  C   UNL     1      36.412  54.054  43.951  0.00  0.00    +0.000 C 
BRANCH  16  17
ATOM     17  C   UNL     1      34.916  53.975  44.126  0.00  0.00    +0.000 C 
ATOM     18  C   UNL     1      34.256  54.581  45.120  0.00  0.00    +0.000 C 
ENDBRANCH  16  17
ENDBRANCH   6  16
BRANCH  10  19
ATOM     19  C   UNL     1      36.505  51.482  40.207  0.00  0.00    +0.000 C 
BRANCH  19  20
ATOM     20  C   UNL     1      37.684  51.350  39.221  0.00  0.00    +0.000 C 
BRANCH  20  21
ATOM     21  N   UNL     1      38.710  52.337  39.626  0.00  0.00    +0.000 NA
ATOM     22  H   UNL     1      38.328  52.929  40.363  0.00  0.00    +0.000 HD
ATOM     23  H   UNL     1      38.927  52.968  38.854  0.00  0.00    +0.000 HD
ENDBRANCH  20  21
BRANCH  20  24
ATOM     24  C   UNL     1      37.233  51.643  37.768  0.00  0.00    +0.000 C 
BRANCH  24  28
ATOM     25  F   UNL     1      38.625  49.778  36.044  0.00  0.00    +0.000 F 
ATOM     26  F   UNL     1      33.279  48.996  36.750  0.00  0.00    +0.000 F 
ATOM     27  F   UNL     1      34.759  47.207  35.299  0.00  0.00    +0.000 F 
ATOM     28  C   UNL     1      36.572  50.544  36.965  0.00  0.00    +0.000 A 
ATOM     29  C   UNL     1      37.304  49.624  36.201  0.00  0.00    +0.000 A 
ATOM     30  C   UNL     1      35.193  50.322  37.123  0.00  0.00    +0.000 A 
ATOM     31  C   UNL     1      34.586  49.206  36.551  0.00  0.00    +0.000 A 
ATOM     32  C   UNL     1      36.698  48.509  35.625  0.00  0.00    +0.000 A 
ATOM     33  C   UNL     1      35.339  48.297  35.816  0.00  0.00    +0.000 A 
ENDBRANCH  24  28
ENDBRANCH  20  24
ENDBRANCH  19  20
ENDBRANCH  10  19
TORSDOF 8
ENDMDL
MODEL 5
REMARK VINA RESULT:      -7.8     16.865     18.919
REMARK  Name = 24776692
REMARK  8 active torsions:
REMARK  status: ('A' for Active; 'I' for Inactive)
REMARK    1  A    between atoms: N_12  and  C_20
REMARK    2  A    between atoms: C_13  and  C_17
REMARK    3  A    between atoms: C_17  and  C_23
REMARK    4  A    between atoms: C_18  and  C_19
REMARK    5  A    between atoms: C_19  and  C_20
REMARK    6  A    between atoms: C_20  and  C_22
REMARK    7  A    between atoms: C_21  and  C_24
REMARK    8  A    between atoms: C_22  and  C_25
REMARK                            x       y       z     vdW  Elec       q    Type
REMARK                         _______ _______ _______ _____ _____    ______ ____
ROOT
ATOM      1  O   UNL     1      36.884  57.102  44.225  0.00  0.00    +0.000 OA
ATOM      2  N   UNL     1      35.914  57.187  42.132  0.00  0.00    +0.000 N 
ATOM      3  N   UNL     1      35.268  58.394  39.693  0.00  0.00    +0.000 N 
ATOM      4  N   UNL     1      35.219  60.442  40.429  0.00  0.00    +0.000 NA
ATOM      5  N   UNL     1      35.039  60.461  39.067  0.00  0.00    +0.000 NA
ATOM      6  C   UNL     1      35.615  58.654  42.207  0.00  0.00    +0.000 C 
ATOM      7  C   UNL     1      35.103  56.453  41.150  0.00  0.00    +0.000 C 
ATOM      8  C   UNL     1      35.354  56.955  39.739  0.00  0.00    +0.000 C 
ATOM      9  C   UNL     1      35.382  59.191  40.806  0.00  0.00    +0.000 A 
ATOM     10  C   UNL     1      36.529  56.526  43.201  0.00  0.00    +0.000 C 
ATOM     11  C   UNL     1      35.071  59.218  38.618  0.00  0.00    +0.000 A 
ENDROOT
BRANCH  11  15
ATOM     12  F   UNL     1      33.775  58.036  37.021  0.00  0.00    +0.000 F 
ATOM     13  F   UNL     1      35.932  57.985  36.790  0.00  0.00    +0.000 F 
ATOM     14  F   UNL     1      34.822  59.815  36.346  0.00  0.00    +0.000 F 
ATOM     15  C   UNL     1      34.907  58.771  37.210  0.00  0.00    +0.000 C 
ENDBRANCH  11  15
BRANCH   6  16
ATOM     16  C   UNL     1      36.619  59.571  42.958  0.00  0.00    +0.000 C 
BRANCH  16  17
ATOM     17  C   UNL     1      36.015  60.469  44.009  0.00  0.00    +0.000 C 
ATOM     18  C   UNL     1      35.732  61.761  43.802  0.00  0.00    +0.000 C 
ENDBRANCH  16  17
ENDBRANCH   6  16
BRANCH  10  19
ATOM     19  C   UNL     1      36.789  55.031  43.016  0.00  0.00    +0.000 C 
BRANCH  19  20
ATOM     20  C   UNL     1      36.376  54.137  44.204  0.00  0.00    +0.000 C 
BRANCH  20  21
ATOM     21  N   UNL     1      37.593  53.885  45.008  0.00  0.00    +0.000 NA
ATOM     22  H   UNL     1      38.349  54.473  44.659  0.00  0.00    +0.000 HD
ATOM     23  H   UNL     1      37.914  52.924  44.883  0.00  0.00    +0.000 HD
ENDBRANCH  20  21
BRANCH  20  24
ATOM     24  C   UNL     1      35.795  52.788  43.712  0.00  0.00    +0.000 C 
BRANCH  24  28
ATOM     25  F   UNL     1      36.722  50.068  43.355  0.00  0.00    +0.000 F 
ATOM     26  F   UNL     1      34.443  51.308  48.146  0.00  0.00    +0.000 F 
ATOM     27  F   UNL     1      35.533  48.830  47.733  0.00  0.00    +0.000 F 
ATOM     28  C   UNL     1      35.593  51.665  44.706  0.00  0.00    +0.000 A 
ATOM     29  C   UNL     1      36.127  50.382  44.512  0.00  0.00    +0.000 A 
ATOM     30  C   UNL     1      35.004  51.955  45.949  0.00  0.00    +0.000 A 
ATOM     31  C   UNL     1      34.975  50.995  46.958  0.00  0.00    +0.000 A 
ATOM     32  C   UNL     1      36.095  49.420  45.520  0.00  0.00    +0.000 A 
ATOM     33  C   UNL     1      35.530  49.737  46.748  0.00  0.00    +0.000 A 
ENDBRANCH  24  28
ENDBRANCH  20  24
ENDBRANCH  19  20
ENDBRANCH  10  19
TORSDOF 8
ENDMDL
MODEL 6
REMARK VINA RESULT:      -7.6     18.479     20.174
REMARK  Name = 24776692
REMARK  8 active torsions:
REMARK  status: ('A' for Active; 'I' for Inactive)
REMARK    1  A    between atoms: N_12  and  C_20
REMARK    2  A    between atoms: C_13  and  C_17
REMARK    3  A    between atoms: C_17  and  C_23
REMARK    4  A    between atoms: C_18  and  C_19
REMARK    5  A    between atoms: C_19  and  C_20
REMARK    6  A    between atoms: C_20  and  C_22
REMARK    7  A    between atoms: C_21  and  C_24
REMARK    8  A    between atoms: C_22  and  C_25
REMARK                            x       y       z     vdW  Elec       q    Type
REMARK                         _______ _______ _______ _____ _____    ______ ____
ROOT
ATOM      1  O   UNL     1      46.859  71.535  41.544  0.00  0.00    +0.000 OA
ATOM      2  N   UNL     1      48.239  70.632  39.929  0.00  0.00    +0.000 N 
ATOM      3  N   UNL     1      50.522  70.546  38.316  0.00  0.00    +0.000 N 
ATOM      4  N   UNL     1      50.820  72.697  38.182  0.00  0.00    +0.000 NA
ATOM      5  N   UNL     1      51.870  72.070  37.555  0.00  0.00    +0.000 NA
ATOM      6  C   UNL     1      48.722  71.963  39.438  0.00  0.00    +0.000 C 
ATOM      7  C   UNL     1      48.408  69.533  38.967  0.00  0.00    +0.000 C 
ATOM      8  C   UNL     1      49.874  69.299  38.646  0.00  0.00    +0.000 C 
ATOM      9  C   UNL     1      50.015  71.773  38.664  0.00  0.00    +0.000 A 
ATOM     10  C   UNL     1      47.303  70.548  40.966  0.00  0.00    +0.000 C 
ATOM     11  C   UNL     1      51.691  70.763  37.638  0.00  0.00    +0.000 A 
ENDROOT
BRANCH  11  15
ATOM     12  F   UNL     1      52.895  68.753  38.011  0.00  0.00    +0.000 F 
ATOM     13  F   UNL     1      53.760  70.192  36.637  0.00  0.00    +0.000 F 
ATOM     14  F   UNL     1      51.998  69.037  36.054  0.00  0.00    +0.000 F 
ATOM     15  C   UNL     1      52.576  69.702  37.087  0.00  0.00    +0.000 C 
ENDBRANCH  11  15
BRANCH   6  16
ATOM     16  C   UNL     1      48.895  73.110  40.470  0.00  0.00    +0.000 C 
BRANCH  16  17
ATOM     17  C   UNL     1      48.224  74.412  40.112  0.00  0.00    +0.000 C 
ATOM     18  C   UNL     1      48.373  75.538  40.819  0.00  0.00    +0.000 C 
ENDBRANCH  16  17
ENDBRANCH   6  16
BRANCH  10  19
ATOM     19  C   UNL     1      46.883  69.141  41.388  0.00  0.00    +0.000 C 
BRANCH  19  20
ATOM     20  C   UNL     1      45.367  68.939  41.598  0.00  0.00    +0.000 C 
BRANCH  20  21
ATOM     21  N   UNL     1      44.917  69.960  42.571  0.00  0.00    +0.000 NA
ATOM     22  H   UNL     1      45.587  70.729  42.578  0.00  0.00    +0.000 HD
ATOM     23  H   UNL     1      44.924  69.581  43.518  0.00  0.00    +0.000 HD
ENDBRANCH  20  21
BRANCH  20  24
ATOM     24  C   UNL     1      45.063  67.526  42.156  0.00  0.00    +0.000 C 
BRANCH  24  28
ATOM     25  F   UNL     1      42.308  68.283  42.622  0.00  0.00    +0.000 F 
ATOM     26  F   UNL     1      43.196  64.059  39.297  0.00  0.00    +0.000 F 
ATOM     27  F   UNL     1      40.655  65.005  39.684  0.00  0.00    +0.000 F 
ATOM     28  C   UNL     1      43.857  66.772  41.640  0.00  0.00    +0.000 A 
ATOM     29  C   UNL     1      42.544  67.225  41.837  0.00  0.00    +0.000 A 
ATOM     30  C   UNL     1      44.056  65.675  40.783  0.00  0.00    +0.000 A 
ATOM     31  C   UNL     1      42.976  65.077  40.138  0.00  0.00    +0.000 A 
ATOM     32  C   UNL     1      41.462  66.625  41.195  0.00  0.00    +0.000 A 
ATOM     33  C   UNL     1      41.686  65.559  40.335  0.00  0.00    +0.000 A 
ENDBRANCH  24  28
ENDBRANCH  20  24
ENDBRANCH  19  20
ENDBRANCH  10  19
TORSDOF 8
ENDMDL
MODEL 7
REMARK VINA RESULT:      -7.6     16.741     19.874
REMARK  Name = 24776692
REMARK  8 active torsions:
REMARK  status: ('A' for Active; 'I' for Inactive)
REMARK    1  A    between atoms: N_12  and  C_20
REMARK    2  A    between atoms: C_13  and  C_17
REMARK    3  A    between atoms: C_17  and  C_23
REMARK    4  A    between atoms: C_18  and  C_19
REMARK    5  A    between atoms: C_19  and  C_20
REMARK    6  A    between atoms: C_20  and  C_22
REMARK    7  A    between atoms: C_21  and  C_24
REMARK    8  A    between atoms: C_22  and  C_25
REMARK                            x       y       z     vdW  Elec       q    Type
REMARK                         _______ _______ _______ _____ _____    ______ ____
ROOT
ATOM      1  O   UNL     1      34.696  55.550  45.734  0.00  0.00    +0.000 OA
ATOM      2  N   UNL     1      35.900  54.268  47.229  0.00  0.00    +0.000 N 
ATOM      3  N   UNL     1      36.256  52.792  49.577  0.00  0.00    +0.000 N 
ATOM      4  N   UNL     1      34.835  53.903  50.794  0.00  0.00    +0.000 NA
ATOM      5  N   UNL     1      35.306  52.843  51.530  0.00  0.00    +0.000 NA
ATOM      6  C   UNL     1      35.193  54.809  48.435  0.00  0.00    +0.000 C 
ATOM      7  C   UNL     1      37.208  53.662  47.515  0.00  0.00    +0.000 C 
ATOM      8  C   UNL     1      37.073  52.461  48.435  0.00  0.00    +0.000 C 
ATOM      9  C   UNL     1      35.392  53.858  49.602  0.00  0.00    +0.000 A 
ATOM     10  C   UNL     1      35.579  54.724  45.945  0.00  0.00    +0.000 C 
ATOM     11  C   UNL     1      36.168  52.165  50.791  0.00  0.00    +0.000 A 
ENDROOT
BRANCH  11  15
ATOM     12  F   UNL     1      38.258  51.197  51.361  0.00  0.00    +0.000 F 
ATOM     13  F   UNL     1      36.851  49.960  50.265  0.00  0.00    +0.000 F 
ATOM     14  F   UNL     1      36.490  50.436  52.368  0.00  0.00    +0.000 F 
ATOM     15  C   UNL     1      36.928  50.951  51.190  0.00  0.00    +0.000 C 
ENDBRANCH  11  15
BRANCH   6  16
ATOM     16  C   UNL     1      33.687  55.168  48.305  0.00  0.00    +0.000 C 
BRANCH  16  17
ATOM     17  C   UNL     1      33.317  56.570  48.721  0.00  0.00    +0.000 C 
ATOM     18  C   UNL     1      34.204  57.565  48.834  0.00  0.00    +0.000 C 
ENDBRANCH  16  17
ENDBRANCH   6  16
BRANCH  10  19
ATOM     19  C   UNL     1      36.360  54.102  44.789  0.00  0.00    +0.000 C 
BRANCH  19  20
ATOM     20  C   UNL     1      35.601  53.030  43.979  0.00  0.00    +0.000 C 
BRANCH  20  21
ATOM     21  N   UNL     1      34.450  53.699  43.331  0.00  0.00    +0.000 NA
ATOM     22  H   UNL     1      34.648  53.809  42.336  0.00  0.00    +0.000 HD
ATOM     23  H   UNL     1      34.335  54.646  43.693  0.00  0.00    +0.000 HD
ENDBRANCH  20  21
BRANCH  20  24
ATOM     24  C   UNL     1      35.085  51.895  44.899  0.00  0.00    +0.000 C 
BRANCH  24  28
ATOM     25  F   UNL     1      34.710  50.081  47.125  0.00  0.00    +0.000 F 
ATOM     26  F   UNL     1      38.852  49.041  43.742  0.00  0.00    +0.000 F 
ATOM     27  F   UNL     1      38.262  47.309  45.780  0.00  0.00    +0.000 F 
ATOM     28  C   UNL     1      36.013  50.755  45.255  0.00  0.00    +0.000 A 
ATOM     29  C   UNL     1      35.744  49.863  46.304  0.00  0.00    +0.000 A 
ATOM     30  C   UNL     1      37.094  50.466  44.403  0.00  0.00    +0.000 A 
ATOM     31  C   UNL     1      37.853  49.313  44.591  0.00  0.00    +0.000 A 
ATOM     32  C   UNL     1      36.506  48.711  46.495  0.00  0.00    +0.000 A 
ATOM     33  C   UNL     1      37.552  48.434  45.626  0.00  0.00    +0.000 A 
ENDBRANCH  24  28
ENDBRANCH  20  24
ENDBRANCH  19  20
ENDBRANCH  10  19
TORSDOF 8
ENDMDL
MODEL 8
REMARK VINA RESULT:      -7.5     29.124     30.808
REMARK  Name = 24776692
REMARK  8 active torsions:
REMARK  status: ('A' for Active; 'I' for Inactive)
REMARK    1  A    between atoms: N_12  and  C_20
REMARK    2  A    between atoms: C_13  and  C_17
REMARK    3  A    between atoms: C_17  and  C_23
REMARK    4  A    between atoms: C_18  and  C_19
REMARK    5  A    between atoms: C_19  and  C_20
REMARK    6  A    between atoms: C_20  and  C_22
REMARK    7  A    between atoms: C_21  and  C_24
REMARK    8  A    between atoms: C_22  and  C_25
REMARK                            x       y       z     vdW  Elec       q    Type
REMARK                         _______ _______ _______ _____ _____    ______ ____
ROOT
ATOM      1  O   UNL     1      44.038  77.621  53.280  0.00  0.00    +0.000 OA
ATOM      2  N   UNL     1      45.498  77.975  51.527  0.00  0.00    +0.000 N 
ATOM      3  N   UNL     1      47.917  78.778  50.376  0.00  0.00    +0.000 N 
ATOM      4  N   UNL     1      48.391  80.323  51.834  0.00  0.00    +0.000 NA
ATOM      5  N   UNL     1      49.447  80.205  50.962  0.00  0.00    +0.000 NA
ATOM      6  C   UNL     1      46.129  79.184  52.149  0.00  0.00    +0.000 C 
ATOM      7  C   UNL     1      45.677  77.879  50.071  0.00  0.00    +0.000 C 
ATOM      8  C   UNL     1      47.145  77.763  49.700  0.00  0.00    +0.000 C 
ATOM      9  C   UNL     1      47.474  79.442  51.493  0.00  0.00    +0.000 A 
ATOM     10  C   UNL     1      44.460  77.295  52.174  0.00  0.00    +0.000 C 
ATOM     11  C   UNL     1      49.161  79.265  50.077  0.00  0.00    +0.000 A 
ENDROOT
BRANCH  11  15
ATOM     12  F   UNL     1      51.179  79.512  48.855  0.00  0.00    +0.000 F 
ATOM     13  F   UNL     1      49.400  78.961  47.741  0.00  0.00    +0.000 F 
ATOM     14  F   UNL     1      50.367  77.508  49.057  0.00  0.00    +0.000 F 
ATOM     15  C   UNL     1      50.012  78.814  48.944  0.00  0.00    +0.000 C 
ENDBRANCH  11  15
BRANCH   6  16
ATOM     16  C   UNL     1      46.285  79.219  53.694  0.00  0.00    +0.000 C 
BRANCH  16  17
ATOM     17  C   UNL     1      45.764  80.462  54.370  0.00  0.00    +0.000 C 
ATOM     18  C   UNL     1      44.803  80.448  55.302  0.00  0.00    +0.000 C 
ENDBRANCH  16  17
ENDBRANCH   6  16
BRANCH  10  19
ATOM     19  C   UNL     1      43.893  76.075  51.451  0.00  0.00    +0.000 C 
BRANCH  19  20
ATOM     20  C   UNL     1      44.366  74.708  51.990  0.00  0.00    +0.000 C 
BRANCH  20  21
ATOM     21  N   UNL     1      44.287  74.765  53.467  0.00  0.00    +0.000 NA
ATOM     22  H   UNL     1      45.231  74.827  53.847  0.00  0.00    +0.000 HD
ATOM     23  H   UNL     1      43.899  73.898  53.840  0.00  0.00    +0.000 HD
ENDBRANCH  20  21
BRANCH  20  24
ATOM     24  C   UNL     1      45.826  74.414  51.563  0.00  0.00    +0.000 C 
BRANCH  24  28
ATOM     25  F   UNL     1      47.767  74.520  49.417  0.00  0.00    +0.000 F 
ATOM     26  F   UNL     1      45.202  69.780  50.217  0.00  0.00    +0.000 F 
ATOM     27  F   UNL     1      47.194  69.977  48.348  0.00  0.00    +0.000 F 
ATOM     28  C   UNL     1      46.097  73.294  50.582  0.00  0.00    +0.000 A 
ATOM     29  C   UNL     1      47.101  73.374  49.605  0.00  0.00    +0.000 A 
ATOM     30  C   UNL     1      45.446  72.061  50.761  0.00  0.00    +0.000 A 
ATOM     31  C   UNL     1      45.809  70.953  50.000  0.00  0.00    +0.000 A 
ATOM     32  C   UNL     1      47.462  72.267  48.840  0.00  0.00    +0.000 A 
ATOM     33  C   UNL     1      46.822  71.053  49.052  0.00  0.00    +0.000 A 
ENDBRANCH  24  28
ENDBRANCH  20  24
ENDBRANCH  19  20
ENDBRANCH  10  19
TORSDOF 8
ENDMDL
MODEL 9
REMARK VINA RESULT:      -7.4     17.994     19.869
REMARK  Name = 24776692
REMARK  8 active torsions:
REMARK  status: ('A' for Active; 'I' for Inactive)
REMARK    1  A    between atoms: N_12  and  C_20
REMARK    2  A    between atoms: C_13  and  C_17
REMARK    3  A    between atoms: C_17  and  C_23
REMARK    4  A    between atoms: C_18  and  C_19
REMARK    5  A    between atoms: C_19  and  C_20
REMARK    6  A    between atoms: C_20  and  C_22
REMARK    7  A    between atoms: C_21  and  C_24
REMARK    8  A    between atoms: C_22  and  C_25
REMARK                            x       y       z     vdW  Elec       q    Type
REMARK                         _______ _______ _______ _____ _____    ______ ____
ROOT
ATOM      1  O   UNL     1      46.827  71.090  41.504  0.00  0.00    +0.000 OA
ATOM      2  N   UNL     1      48.329  70.444  39.874  0.00  0.00    +0.000 N 
ATOM      3  N   UNL     1      50.624  70.721  38.300  0.00  0.00    +0.000 N 
ATOM      4  N   UNL     1      50.650  72.897  38.270  0.00  0.00    +0.000 NA
ATOM      5  N   UNL     1      51.778  72.437  37.634  0.00  0.00    +0.000 NA
ATOM      6  C   UNL     1      48.646  71.847  39.453  0.00  0.00    +0.000 C 
ATOM      7  C   UNL     1      48.647  69.422  38.867  0.00  0.00    +0.000 C 
ATOM      8  C   UNL     1      50.135  69.390  38.562  0.00  0.00    +0.000 C 
ATOM      9  C   UNL     1      49.962  71.858  38.695  0.00  0.00    +0.000 A 
ATOM     10  C   UNL     1      47.399  70.194  40.889  0.00  0.00    +0.000 C 
ATOM     11  C   UNL     1      51.764  71.115  37.654  0.00  0.00    +0.000 A 
ENDROOT
BRANCH  11  15
ATOM     12  F   UNL     1      53.880  70.865  36.610  0.00  0.00    +0.000 F 
ATOM     13  F   UNL     1      52.306  69.495  36.015  0.00  0.00    +0.000 F 
ATOM     14  F   UNL     1      53.246  69.304  37.979  0.00  0.00    +0.000 F 
ATOM     15  C   UNL     1      52.783  70.202  37.072  0.00  0.00    +0.000 C 
ENDBRANCH  11  15
BRANCH   6  16
ATOM     16  C   UNL     1      48.660  72.956  40.539  0.00  0.00    +0.000 C 
BRANCH  16  17
ATOM     17  C   UNL     1      48.172  74.311  40.090  0.00  0.00    +0.000 C 
ATOM     18  C   UNL     1      48.338  75.430  40.805  0.00  0.00    +0.000 C 
ENDBRANCH  16  17
ENDBRANCH   6  16
BRANCH  10  19
ATOM     19  C   UNL     1      47.154  68.727  41.240  0.00  0.00    +0.000 C 
BRANCH  19  20
ATOM     20  C   UNL     1      45.683  68.267  41.168  0.00  0.00    +0.000 C 
BRANCH  20  21
ATOM     21  N   UNL     1      45.015  68.731  42.405  0.00  0.00    +0.000 NA
ATOM     22  H   UNL     1      44.889  67.936  43.032  0.00  0.00    +0.000 HD
ATOM     23  H   UNL     1      44.075  69.070  42.200  0.00  0.00    +0.000 HD
ENDBRANCH  20  21
BRANCH  20  24
ATOM     24  C   UNL     1      45.584  66.723  41.078  0.00  0.00    +0.000 C 
BRANCH  24  28
ATOM     25  F   UNL     1      43.545  65.762  39.261  0.00  0.00    +0.000 F 
ATOM     26  F   UNL     1      48.718  65.455  37.578  0.00  0.00    +0.000 F 
ATOM     27  F   UNL     1      46.673  64.757  35.896  0.00  0.00    +0.000 F 
ATOM     28  C   UNL     1      45.853  66.043  39.753  0.00  0.00    +0.000 A 
ATOM     29  C   UNL     1      44.824  65.661  38.880  0.00  0.00    +0.000 A 
ATOM     30  C   UNL     1      47.179  65.946  39.296  0.00  0.00    +0.000 A 
ATOM     31  C   UNL     1      47.450  65.501  38.003  0.00  0.00    +0.000 A 
ATOM     32  C   UNL     1      45.095  65.212  37.588  0.00  0.00    +0.000 A 
ATOM     33  C   UNL     1      46.410  65.148  37.150  0.00  0.00    +0.000 A 
ENDBRANCH  24  28
ENDBRANCH  20  24
ENDBRANCH  19  20
ENDBRANCH  10  19
TORSDOF 8
ENDMDL
