MODEL 1
REMARK VINA RESULT:      -8.5      0.000      0.000
REMARK  Name = 24778190
REMARK  13 active torsions:
REMARK  status: ('A' for Active; 'I' for Inactive)
REMARK    1  A    between atoms: O_8  and  C_28
REMARK    2  A    between atoms: O_8  and  C_29
REMARK    3  A    between atoms: N_14  and  C_22
REMARK    4  A    between atoms: C_15  and  C_19
REMARK    5  A    between atoms: C_19  and  C_25
REMARK    6  A    between atoms: C_20  and  C_21
REMARK    7  A    between atoms: C_21  and  C_22
REMARK    8  A    between atoms: C_22  and  C_24
REMARK    9  A    between atoms: C_23  and  C_26
REMARK   10  A    between atoms: C_24  and  C_27
REMARK   11  A    between atoms: C_29  and  C_33
REMARK   12  A    between atoms: C_29  and  C_34
REMARK   13  A    between atoms: C_29  and  C_35
REMARK                            x       y       z     vdW  Elec       q    Type
REMARK                         _______ _______ _______ _____ _____    ______ ____
ROOT
ATOM      1  C   UNL     1      37.556  51.273  38.550  0.00  0.00    +0.000 C 
ENDROOT
BRANCH   1   3
ATOM      2  O   UNL     1      39.992  49.801  38.245  0.00  0.00    +0.000 OA
ATOM      3  N   UNL     1      38.911  51.811  38.332  0.00  0.00    +0.000 N 
ATOM      4  C   UNL     1      40.021  51.021  38.227  0.00  0.00    +0.000 C 
ATOM      5  H   UNL     1      39.070  52.811  38.362  0.00  0.00    +0.000 HD
BRANCH   4   6
ATOM      6  O   UNL     1      41.137  51.780  38.103  0.00  0.00    +0.000 OA
BRANCH   6   7
ATOM      7  C   UNL     1      41.879  51.732  36.853  0.00  0.00    +0.000 C 
ATOM      8  C   UNL     1      40.957  51.402  35.669  0.00  0.00    +0.000 C 
ATOM      9  C   UNL     1      42.445  53.146  36.642  0.00  0.00    +0.000 C 
ATOM     10  C   UNL     1      43.063  50.759  36.945  0.00  0.00    +0.000 C 
ENDBRANCH   6   7
ENDBRANCH   4   6
ENDBRANCH   1   3
BRANCH   1  11
ATOM     11  C   UNL     1      36.926  51.914  39.806  0.00  0.00    +0.000 C 
BRANCH  11  21
ATOM     12  O   UNL     1      38.229  50.427  41.169  0.00  0.00    +0.000 OA
ATOM     13  N   UNL     1      36.729  51.752  42.277  0.00  0.00    +0.000 N 
ATOM     14  N   UNL     1      36.589  53.395  44.511  0.00  0.00    +0.000 N 
ATOM     15  N   UNL     1      37.538  51.993  45.885  0.00  0.00    +0.000 NA
ATOM     16  N   UNL     1      37.337  53.177  46.544  0.00  0.00    +0.000 NA
ATOM     17  C   UNL     1      37.049  51.084  43.569  0.00  0.00    +0.000 C 
ATOM     18  C   UNL     1      35.687  52.787  42.316  0.00  0.00    +0.000 C 
ATOM     19  C   UNL     1      36.083  53.916  43.262  0.00  0.00    +0.000 C 
ATOM     20  C   UNL     1      37.070  52.118  44.662  0.00  0.00    +0.000 A 
ATOM     21  C   UNL     1      37.355  51.289  41.124  0.00  0.00    +0.000 C 
ATOM     22  C   UNL     1      36.771  54.033  45.710  0.00  0.00    +0.000 A 
BRANCH  22  26
ATOM     23  F   UNL     1      37.051  56.335  45.228  0.00  0.00    +0.000 F 
ATOM     24  F   UNL     1      36.653  55.790  47.291  0.00  0.00    +0.000 F 
ATOM     25  F   UNL     1      35.066  55.660  45.794  0.00  0.00    +0.000 F 
ATOM     26  C   UNL     1      36.387  55.436  46.007  0.00  0.00    +0.000 C 
ENDBRANCH  22  26
BRANCH  17  27
ATOM     27  C   UNL     1      36.031  49.946  43.861  0.00  0.00    +0.000 C 
BRANCH  27  28
ATOM     28  C   UNL     1      36.392  49.045  45.017  0.00  0.00    +0.000 C 
ATOM     29  C   UNL     1      35.727  47.935  45.363  0.00  0.00    +0.000 C 
ENDBRANCH  27  28
ENDBRANCH  17  27
ENDBRANCH  11  21
ENDBRANCH   1  11
BRANCH   1  30
ATOM     30  C   UNL     1      36.655  51.477  37.306  0.00  0.00    +0.000 C 
BRANCH  30  34
ATOM     31  F   UNL     1      38.070  49.464  35.845  0.00  0.00    +0.000 F 
ATOM     32  F   UNL     1      32.797  48.538  36.844  0.00  0.00    +0.000 F 
ATOM     33  F   UNL     1      34.331  46.620  35.633  0.00  0.00    +0.000 F 
ATOM     34  C   UNL     1      36.008  50.242  36.726  0.00  0.00    +0.000 A 
ATOM     35  C   UNL     1      36.767  49.259  36.076  0.00  0.00    +0.000 A 
ATOM     36  C   UNL     1      34.647  49.993  36.959  0.00  0.00    +0.000 A 
ATOM     37  C   UNL     1      34.088  48.776  36.580  0.00  0.00    +0.000 A 
ATOM     38  C   UNL     1      36.208  48.043  35.693  0.00  0.00    +0.000 A 
ATOM     39  C   UNL     1      34.867  47.804  35.961  0.00  0.00    +0.000 A 
ENDBRANCH  30  34
ENDBRANCH   1  30
TORSDOF 10
ENDMDL
MODEL 2
REMARK VINA RESULT:      -8.4     22.836     26.145
REMARK  Name = 24778190
REMARK  13 active torsions:
REMARK  status: ('A' for Active; 'I' for Inactive)
REMARK    1  A    between atoms: O_8  and  C_28
REMARK    2  A    between atoms: O_8  and  C_29
REMARK    3  A    between atoms: N_14  and  C_22
REMARK    4  A    between atoms: C_15  and  C_19
REMARK    5  A    between atoms: C_19  and  C_25
REMARK    6  A    between atoms: C_20  and  C_21
REMARK    7  A    between atoms: C_21  and  C_22
REMARK    8  A    between atoms: C_22  and  C_24
REMARK    9  A    between atoms: C_23  and  C_26
REMARK   10  A    between atoms: C_24  and  C_27
REMARK   11  A    between atoms: C_29  and  C_33
REMARK   12  A    between atoms: C_29  and  C_34
REMARK   13  A    between atoms: C_29  and  C_35
REMARK                            x       y       z     vdW  Elec       q    Type
REMARK                         _______ _______ _______ _____ _____    ______ ____
ROOT
ATOM      1  C   UNL     1      52.103  70.061  37.438  0.00  0.00    +0.000 C 
ENDROOT
BRANCH   1   3
ATOM      2  O   UNL     1      53.858  67.816  37.165  0.00  0.00    +0.000 OA
ATOM      3  N   UNL     1      52.661  69.501  36.194  0.00  0.00    +0.000 N 
ATOM      4  C   UNL     1      53.518  68.438  36.170  0.00  0.00    +0.000 C 
ATOM      5  H   UNL     1      52.500  69.971  35.311  0.00  0.00    +0.000 HD
BRANCH   4   6
ATOM      6  O   UNL     1      53.927  68.182  34.904  0.00  0.00    +0.000 OA
BRANCH   6   7
ATOM      7  C   UNL     1      53.258  67.130  34.153  0.00  0.00    +0.000 C 
ATOM      8  C   UNL     1      52.567  67.693  32.901  0.00  0.00    +0.000 C 
ATOM      9  C   UNL     1      54.366  66.167  33.697  0.00  0.00    +0.000 C 
ATOM     10  C   UNL     1      52.284  66.344  35.041  0.00  0.00    +0.000 C 
ENDBRANCH   6   7
ENDBRANCH   4   6
ENDBRANCH   1   3
BRANCH   1  11
ATOM     11  C   UNL     1      52.814  71.386  37.791  0.00  0.00    +0.000 C 
BRANCH  11  21
ATOM     12  O   UNL     1      54.771  71.780  36.454  0.00  0.00    +0.000 OA
ATOM     13  N   UNL     1      55.138  70.969  38.561  0.00  0.00    +0.000 N 
ATOM     14  N   UNL     1      56.764  71.434  40.764  0.00  0.00    +0.000 N 
ATOM     15  N   UNL     1      58.633  71.550  39.648  0.00  0.00    +0.000 NA
ATOM     16  N   UNL     1      58.890  71.861  40.957  0.00  0.00    +0.000 NA
ATOM     17  C   UNL     1      56.600  70.863  38.297  0.00  0.00    +0.000 C 
ATOM     18  C   UNL     1      54.677  70.507  39.877  0.00  0.00    +0.000 C 
ATOM     19  C   UNL     1      55.343  71.304  40.994  0.00  0.00    +0.000 C 
ATOM     20  C   UNL     1      57.352  71.274  39.534  0.00  0.00    +0.000 A 
ATOM     21  C   UNL     1      54.312  71.396  37.527  0.00  0.00    +0.000 C 
ATOM     22  C   UNL     1      57.756  71.801  41.635  0.00  0.00    +0.000 A 
BRANCH  22  26
ATOM     23  F   UNL     1      57.946  71.020  43.863  0.00  0.00    +0.000 F 
ATOM     24  F   UNL     1      56.282  72.337  43.406  0.00  0.00    +0.000 F 
ATOM     25  F   UNL     1      58.317  73.129  43.501  0.00  0.00    +0.000 F 
ATOM     26  C   UNL     1      57.574  72.073  43.083  0.00  0.00    +0.000 C 
ENDBRANCH  22  26
BRANCH  17  27
ATOM     27  C   UNL     1      56.969  69.424  37.840  0.00  0.00    +0.000 C 
BRANCH  27  28
ATOM     28  C   UNL     1      57.754  69.342  36.554  0.00  0.00    +0.000 C 
ATOM     29  C   UNL     1      57.232  69.461  35.325  0.00  0.00    +0.000 C 
ENDBRANCH  27  28
ENDBRANCH  17  27
ENDBRANCH  11  21
ENDBRANCH   1  11
BRANCH   1  30
ATOM     30  C   UNL     1      50.569  70.258  37.338  0.00  0.00    +0.000 C 
BRANCH  30  34
ATOM     31  F   UNL     1      50.501  69.166  39.982  0.00  0.00    +0.000 F 
ATOM     32  F   UNL     1      48.333  74.117  39.302  0.00  0.00    +0.000 F 
ATOM     33  F   UNL     1      48.522  73.022  41.805  0.00  0.00    +0.000 F 
ATOM     34  C   UNL     1      49.892  70.927  38.511  0.00  0.00    +0.000 A 
ATOM     35  C   UNL     1      49.949  70.372  39.797  0.00  0.00    +0.000 A 
ATOM     36  C   UNL     1      49.315  72.195  38.352  0.00  0.00    +0.000 A 
ATOM     37  C   UNL     1      48.847  72.890  39.464  0.00  0.00    +0.000 A 
ATOM     38  C   UNL     1      49.479  71.065  40.909  0.00  0.00    +0.000 A 
ATOM     39  C   UNL     1      48.939  72.332  40.734  0.00  0.00    +0.000 A 
ENDBRANCH  30  34
ENDBRANCH   1  30
TORSDOF 10
ENDMDL
MODEL 3
REMARK VINA RESULT:      -7.7     11.331     14.111
REMARK  Name = 24778190
REMARK  13 active torsions:
REMARK  status: ('A' for Active; 'I' for Inactive)
REMARK    1  A    between atoms: O_8  and  C_28
REMARK    2  A    between atoms: O_8  and  C_29
REMARK    3  A    between atoms: N_14  and  C_22
REMARK    4  A    between atoms: C_15  and  C_19
REMARK    5  A    between atoms: C_19  and  C_25
REMARK    6  A    between atoms: C_20  and  C_21
REMARK    7  A    between atoms: C_21  and  C_22
REMARK    8  A    between atoms: C_22  and  C_24
REMARK    9  A    between atoms: C_23  and  C_26
REMARK   10  A    between atoms: C_24  and  C_27
REMARK   11  A    between atoms: C_29  and  C_33
REMARK   12  A    between atoms: C_29  and  C_34
REMARK   13  A    between atoms: C_29  and  C_35
REMARK                            x       y       z     vdW  Elec       q    Type
REMARK                         _______ _______ _______ _____ _____    ______ ____
ROOT
ATOM      1  C   UNL     1      50.758  50.529  37.811  0.00  0.00    +0.000 C 
ENDROOT
BRANCH   1   3
ATOM      2  O   UNL     1      50.829  48.743  35.576  0.00  0.00    +0.000 OA
ATOM      3  N   UNL     1      51.890  49.703  37.355  0.00  0.00    +0.000 N 
ATOM      4  C   UNL     1      51.815  48.855  36.287  0.00  0.00    +0.000 C 
ATOM      5  H   UNL     1      52.742  49.665  37.902  0.00  0.00    +0.000 HD
BRANCH   4   6
ATOM      6  O   UNL     1      52.975  48.171  36.137  0.00  0.00    +0.000 OA
BRANCH   6   7
ATOM      7  C   UNL     1      53.765  48.389  34.934  0.00  0.00    +0.000 C 
ATOM      8  C   UNL     1      53.794  49.875  34.548  0.00  0.00    +0.000 C 
ATOM      9  C   UNL     1      55.197  47.955  35.285  0.00  0.00    +0.000 C 
ATOM     10  C   UNL     1      53.273  47.506  33.778  0.00  0.00    +0.000 C 
ENDBRANCH   6   7
ENDBRANCH   4   6
ENDBRANCH   1   3
BRANCH   1  11
ATOM     11  C   UNL     1      51.027  51.058  39.238  0.00  0.00    +0.000 C 
BRANCH  11  21
ATOM     12  O   UNL     1      49.716  49.246  40.113  0.00  0.00    +0.000 OA
ATOM     13  N   UNL     1      50.791  50.546  41.657  0.00  0.00    +0.000 N 
ATOM     14  N   UNL     1      52.353  50.284  43.938  0.00  0.00    +0.000 N 
ATOM     15  N   UNL     1      51.076  48.819  44.923  0.00  0.00    +0.000 NA
ATOM     16  N   UNL     1      52.206  48.986  45.679  0.00  0.00    +0.000 NA
ATOM     17  C   UNL     1      50.151  49.799  42.775  0.00  0.00    +0.000 C 
ATOM     18  C   UNL     1      51.665  51.665  42.035  0.00  0.00    +0.000 C 
ATOM     19  C   UNL     1      52.821  51.179  42.903  0.00  0.00    +0.000 C 
ATOM     20  C   UNL     1      51.156  49.616  43.880  0.00  0.00    +0.000 A 
ATOM     21  C   UNL     1      50.445  50.205  40.354  0.00  0.00    +0.000 C 
ATOM     22  C   UNL     1      52.988  49.867  45.078  0.00  0.00    +0.000 A 
BRANCH  22  26
ATOM     23  F   UNL     1      55.273  50.245  44.583  0.00  0.00    +0.000 F 
ATOM     24  F   UNL     1      54.780  49.619  46.603  0.00  0.00    +0.000 F 
ATOM     25  F   UNL     1      54.291  51.640  45.927  0.00  0.00    +0.000 F 
ATOM     26  C   UNL     1      54.315  50.338  45.547  0.00  0.00    +0.000 C 
ENDBRANCH  22  26
BRANCH  17  27
ATOM     27  C   UNL     1      48.873  50.537  43.263  0.00  0.00    +0.000 C 
BRANCH  27  28
ATOM     28  C   UNL     1      47.807  49.649  43.857  0.00  0.00    +0.000 C 
ATOM     29  C   UNL     1      47.619  48.359  43.544  0.00  0.00    +0.000 C 
ENDBRANCH  27  28
ENDBRANCH  17  27
ENDBRANCH  11  21
ENDBRANCH   1  11
BRANCH   1  30
ATOM     30  C   UNL     1      50.469  51.692  36.829  0.00  0.00    +0.000 C 
BRANCH  30  34
ATOM     31  F   UNL     1      49.712  53.117  34.466  0.00  0.00    +0.000 F 
ATOM     32  F   UNL     1      45.750  50.522  37.156  0.00  0.00    +0.000 F 
ATOM     33  F   UNL     1      45.220  51.761  34.773  0.00  0.00    +0.000 F 
ATOM     34  C   UNL     1      49.044  51.839  36.352  0.00  0.00    +0.000 A 
ATOM     35  C   UNL     1      48.743  52.495  35.150  0.00  0.00    +0.000 A 
ATOM     36  C   UNL     1      48.007  51.191  37.040  0.00  0.00    +0.000 A 
ATOM     37  C   UNL     1      46.721  51.178  36.507  0.00  0.00    +0.000 A 
ATOM     38  C   UNL     1      47.456  52.485  34.618  0.00  0.00    +0.000 A 
ATOM     39  C   UNL     1      46.452  51.811  35.299  0.00  0.00    +0.000 A 
ENDBRANCH  30  34
ENDBRANCH   1  30
TORSDOF 10
ENDMDL
MODEL 4
REMARK VINA RESULT:      -7.6      3.368      9.536
REMARK  Name = 24778190
REMARK  13 active torsions:
REMARK  status: ('A' for Active; 'I' for Inactive)
REMARK    1  A    between atoms: O_8  and  C_28
REMARK    2  A    between atoms: O_8  and  C_29
REMARK    3  A    between atoms: N_14  and  C_22
REMARK    4  A    between atoms: C_15  and  C_19
REMARK    5  A    between atoms: C_19  and  C_25
REMARK    6  A    between atoms: C_20  and  C_21
REMARK    7  A    between atoms: C_21  and  C_22
REMARK    8  A    between atoms: C_22  and  C_24
REMARK    9  A    between atoms: C_23  and  C_26
REMARK   10  A    between atoms: C_24  and  C_27
REMARK   11  A    between atoms: C_29  and  C_33
REMARK   12  A    between atoms: C_29  and  C_34
REMARK   13  A    between atoms: C_29  and  C_35
REMARK                            x       y       z     vdW  Elec       q    Type
REMARK                         _______ _______ _______ _____ _____    ______ ____
ROOT
ATOM      1  C   UNL     1      38.295  50.881  42.044  0.00  0.00    +0.000 C 
ENDROOT
BRANCH   1   3
ATOM      2  O   UNL     1      35.801  52.255  41.752  0.00  0.00    +0.000 OA
ATOM      3  N   UNL     1      37.913  52.185  42.616  0.00  0.00    +0.000 N 
ATOM      4  C   UNL     1      36.701  52.773  42.394  0.00  0.00    +0.000 C 
ATOM      5  H   UNL     1      38.599  52.739  43.115  0.00  0.00    +0.000 HD
BRANCH   4   6
ATOM      6  O   UNL     1      36.648  53.994  42.979  0.00  0.00    +0.000 OA
BRANCH   6   7
ATOM      7  C   UNL     1      36.090  54.103  44.319  0.00  0.00    +0.000 C 
ATOM      8  C   UNL     1      37.181  53.964  45.391  0.00  0.00    +0.000 C 
ATOM      9  C   UNL     1      35.499  55.519  44.416  0.00  0.00    +0.000 C 
ATOM     10  C   UNL     1      34.948  53.099  44.530  0.00  0.00    +0.000 C 
ENDBRANCH   6   7
ENDBRANCH   4   6
ENDBRANCH   1   3
BRANCH   1  11
ATOM     11  C   UNL     1      39.517  51.046  41.113  0.00  0.00    +0.000 C 
BRANCH  11  21
ATOM     12  O   UNL     1      38.163  51.926  39.335  0.00  0.00    +0.000 OA
ATOM     13  N   UNL     1      40.074  50.841  38.702  0.00  0.00    +0.000 N 
ATOM     14  N   UNL     1      42.230  51.162  36.982  0.00  0.00    +0.000 N 
ATOM     15  N   UNL     1      41.049  51.723  35.237  0.00  0.00    +0.000 NA
ATOM     16  N   UNL     1      42.376  51.848  34.921  0.00  0.00    +0.000 NA
ATOM     17  C   UNL     1      39.714  50.987  37.264  0.00  0.00    +0.000 C 
ATOM     18  C   UNL     1      41.313  50.108  38.994  0.00  0.00    +0.000 C 
ATOM     19  C   UNL     1      42.512  50.797  38.351  0.00  0.00    +0.000 C 
ATOM     20  C   UNL     1      40.960  51.291  36.476  0.00  0.00    +0.000 A 
ATOM     21  C   UNL     1      39.177  51.310  39.655  0.00  0.00    +0.000 C 
ATOM     22  C   UNL     1      43.095  51.518  35.981  0.00  0.00    +0.000 A 
BRANCH  22  26
ATOM     23  F   UNL     1      45.056  50.437  36.754  0.00  0.00    +0.000 F 
ATOM     24  F   UNL     1      45.052  52.609  36.741  0.00  0.00    +0.000 F 
ATOM     25  F   UNL     1      45.171  51.498  34.862  0.00  0.00    +0.000 F 
ATOM     26  C   UNL     1      44.576  51.521  36.081  0.00  0.00    +0.000 C 
ENDBRANCH  22  26
BRANCH  17  27
ATOM     27  C   UNL     1      38.995  49.709  36.748  0.00  0.00    +0.000 C 
BRANCH  27  28
ATOM     28  C   UNL     1      37.716  49.957  35.987  0.00  0.00    +0.000 C 
ATOM     29  C   UNL     1      36.791  49.027  35.714  0.00  0.00    +0.000 C 
ENDBRANCH  27  28
ENDBRANCH  17  27
ENDBRANCH  11  21
ENDBRANCH   1  11
BRANCH   1  30
ATOM     30  C   UNL     1      38.571  49.832  43.150  0.00  0.00    +0.000 C 
BRANCH  30  34
ATOM     31  F   UNL     1      35.757  49.389  43.422  0.00  0.00    +0.000 F 
ATOM     32  F   UNL     1      38.522  50.548  47.970  0.00  0.00    +0.000 F 
ATOM     33  F   UNL     1      35.863  49.904  48.094  0.00  0.00    +0.000 F 
ATOM     34  C   UNL     1      37.812  49.994  44.445  0.00  0.00    +0.000 A 
ATOM     35  C   UNL     1      36.444  49.699  44.529  0.00  0.00    +0.000 A 
ATOM     36  C   UNL     1      38.504  50.307  45.624  0.00  0.00    +0.000 A 
ATOM     37  C   UNL     1      37.839  50.284  46.847  0.00  0.00    +0.000 A 
ATOM     38  C   UNL     1      35.777  49.679  45.751  0.00  0.00    +0.000 A 
ATOM     39  C   UNL     1      36.488  49.962  46.910  0.00  0.00    +0.000 A 
ENDBRANCH  30  34
ENDBRANCH   1  30
TORSDOF 10
ENDMDL
MODEL 5
REMARK VINA RESULT:      -7.5      6.877      9.324
REMARK  Name = 24778190
REMARK  13 active torsions:
REMARK  status: ('A' for Active; 'I' for Inactive)
REMARK    1  A    between atoms: O_8  and  C_28
REMARK    2  A    between atoms: O_8  and  C_29
REMARK    3  A    between atoms: N_14  and  C_22
REMARK    4  A    between atoms: C_15  and  C_19
REMARK    5  A    between atoms: C_19  and  C_25
REMARK    6  A    between atoms: C_20  and  C_21
REMARK    7  A    between atoms: C_21  and  C_22
REMARK    8  A    between atoms: C_22  and  C_24
REMARK    9  A    between atoms: C_23  and  C_26
REMARK   10  A    between atoms: C_24  and  C_27
REMARK   11  A    between atoms: C_29  and  C_33
REMARK   12  A    between atoms: C_29  and  C_34
REMARK   13  A    between atoms: C_29  and  C_35
REMARK                            x       y       z     vdW  Elec       q    Type
REMARK                         _______ _______ _______ _____ _____    ______ ____
ROOT
ATOM      1  C   UNL     1      39.239  50.526  47.641  0.00  0.00    +0.000 C 
ENDROOT
BRANCH   1   3
ATOM      2  O   UNL     1      39.775  47.733  47.321  0.00  0.00    +0.000 OA
ATOM      3  N   UNL     1      40.332  49.901  46.874  0.00  0.00    +0.000 N 
ATOM      4  C   UNL     1      40.520  48.550  46.805  0.00  0.00    +0.000 C 
ATOM      5  H   UNL     1      41.050  50.479  46.454  0.00  0.00    +0.000 HD
BRANCH   4   6
ATOM      6  O   UNL     1      41.636  48.259  46.094  0.00  0.00    +0.000 OA
BRANCH   6   7
ATOM      7  C   UNL     1      41.521  48.085  44.654  0.00  0.00    +0.000 C 
ATOM      8  C   UNL     1      42.471  49.028  43.900  0.00  0.00    +0.000 C 
ATOM      9  C   UNL     1      41.954  46.638  44.367  0.00  0.00    +0.000 C 
ATOM     10  C   UNL     1      40.066  48.244  44.188  0.00  0.00    +0.000 C 
ENDBRANCH   6   7
ENDBRANCH   4   6
ENDBRANCH   1   3
BRANCH   1  11
ATOM     11  C   UNL     1      39.749  51.802  48.348  0.00  0.00    +0.000 C 
BRANCH  11  21
ATOM     12  O   UNL     1      38.220  53.622  48.695  0.00  0.00    +0.000 OA
ATOM     13  N   UNL     1      38.258  52.015  50.322  0.00  0.00    +0.000 N 
ATOM     14  N   UNL     1      36.507  50.485  51.840  0.00  0.00    +0.000 N 
ATOM     15  N   UNL     1      35.204  52.134  52.418  0.00  0.00    +0.000 NA
ATOM     16  N   UNL     1      34.653  50.966  52.876  0.00  0.00    +0.000 NA
ATOM     17  C   UNL     1      37.302  52.796  51.156  0.00  0.00    +0.000 C 
ATOM     18  C   UNL     1      38.753  50.758  50.900  0.00  0.00    +0.000 C 
ATOM     19  C   UNL     1      37.598  49.802  51.182  0.00  0.00    +0.000 C 
ATOM     20  C   UNL     1      36.333  51.846  51.808  0.00  0.00    +0.000 A 
ATOM     21  C   UNL     1      38.688  52.569  49.122  0.00  0.00    +0.000 C 
ATOM     22  C   UNL     1      35.437  49.963  52.518  0.00  0.00    +0.000 A 
BRANCH  22  26
ATOM     23  F   UNL     1      33.998  48.283  53.365  0.00  0.00    +0.000 F 
ATOM     24  F   UNL     1      36.132  48.011  53.659  0.00  0.00    +0.000 F 
ATOM     25  F   UNL     1      35.257  47.769  51.671  0.00  0.00    +0.000 F 
ATOM     26  C   UNL     1      35.214  48.522  52.799  0.00  0.00    +0.000 C 
ENDBRANCH  22  26
BRANCH  17  27
ATOM     27  C   UNL     1      38.065  53.658  52.199  0.00  0.00    +0.000 C 
BRANCH  27  28
ATOM     28  C   UNL     1      39.473  54.039  51.809  0.00  0.00    +0.000 C 
ATOM     29  C   UNL     1      39.911  55.293  51.639  0.00  0.00    +0.000 C 
ENDBRANCH  27  28
ENDBRANCH  17  27
ENDBRANCH  11  21
ENDBRANCH   1  11
BRANCH   1  30
ATOM     30  C   UNL     1      38.015  50.834  46.743  0.00  0.00    +0.000 C 
BRANCH  30  34
ATOM     31  F   UNL     1      37.109  49.690  44.282  0.00  0.00    +0.000 F 
ATOM     32  F   UNL     1      35.083  47.578  48.876  0.00  0.00    +0.000 F 
ATOM     33  F   UNL     1      34.467  46.462  46.452  0.00  0.00    +0.000 F 
ATOM     34  C   UNL     1      36.955  49.763  46.649  0.00  0.00    +0.000 A 
ATOM     35  C   UNL     1      36.600  49.196  45.418  0.00  0.00    +0.000 A 
ATOM     36  C   UNL     1      36.410  49.217  47.821  0.00  0.00    +0.000 A 
ATOM     37  C   UNL     1      35.565  48.112  47.745  0.00  0.00    +0.000 A 
ATOM     38  C   UNL     1      35.753  48.093  45.341  0.00  0.00    +0.000 A 
ATOM     39  C   UNL     1      35.249  47.549  46.514  0.00  0.00    +0.000 A 
ENDBRANCH  30  34
ENDBRANCH   1  30
TORSDOF 10
ENDMDL
MODEL 6
REMARK VINA RESULT:      -7.0      4.403      9.684
REMARK  Name = 24778190
REMARK  13 active torsions:
REMARK  status: ('A' for Active; 'I' for Inactive)
REMARK    1  A    between atoms: O_8  and  C_28
REMARK    2  A    between atoms: O_8  and  C_29
REMARK    3  A    between atoms: N_14  and  C_22
REMARK    4  A    between atoms: C_15  and  C_19
REMARK    5  A    between atoms: C_19  and  C_25
REMARK    6  A    between atoms: C_20  and  C_21
REMARK    7  A    between atoms: C_21  and  C_22
REMARK    8  A    between atoms: C_22  and  C_24
REMARK    9  A    between atoms: C_23  and  C_26
REMARK   10  A    between atoms: C_24  and  C_27
REMARK   11  A    between atoms: C_29  and  C_33
REMARK   12  A    between atoms: C_29  and  C_34
REMARK   13  A    between atoms: C_29  and  C_35
REMARK                            x       y       z     vdW  Elec       q    Type
REMARK                         _______ _______ _______ _____ _____    ______ ____
ROOT
ATOM      1  C   UNL     1      39.363  50.523  41.786  0.00  0.00    +0.000 C 
ENDROOT
BRANCH   1   3
ATOM      2  O   UNL     1      36.613  51.263  41.504  0.00  0.00    +0.000 OA
ATOM      3  N   UNL     1      38.569  51.391  42.674  0.00  0.00    +0.000 N 
ATOM      4  C   UNL     1      37.262  51.709  42.436  0.00  0.00    +0.000 C 
ATOM      5  H   UNL     1      39.017  51.871  43.446  0.00  0.00    +0.000 HD
BRANCH   4   6
ATOM      6  O   UNL     1      36.804  52.577  43.370  0.00  0.00    +0.000 OA
BRANCH   6   7
ATOM      7  C   UNL     1      36.119  52.048  44.540  0.00  0.00    +0.000 C 
ATOM      8  C   UNL     1      35.785  50.559  44.364  0.00  0.00    +0.000 C 
ATOM      9  C   UNL     1      37.109  52.184  45.707  0.00  0.00    +0.000 C 
ATOM     10  C   UNL     1      34.872  52.879  44.877  0.00  0.00    +0.000 C 
ENDBRANCH   6   7
ENDBRANCH   4   6
ENDBRANCH   1   3
BRANCH   1  11
ATOM     11  C   UNL     1      40.373  51.369  40.979  0.00  0.00    +0.000 C 
BRANCH  11  21
ATOM     12  O   UNL     1      38.941  52.251  39.265  0.00  0.00    +0.000 OA
ATOM     13  N   UNL     1      40.830  51.182  38.546  0.00  0.00    +0.000 N 
ATOM     14  N   UNL     1      42.911  51.528  36.739  0.00  0.00    +0.000 N 
ATOM     15  N   UNL     1      41.655  52.091  35.049  0.00  0.00    +0.000 NA
ATOM     16  N   UNL     1      42.967  52.227  34.678  0.00  0.00    +0.000 NA
ATOM     17  C   UNL     1      40.410  51.334  37.125  0.00  0.00    +0.000 C 
ATOM     18  C   UNL     1      42.085  50.455  38.781  0.00  0.00    +0.000 C 
ATOM     19  C   UNL     1      43.252  51.156  38.094  0.00  0.00    +0.000 C 
ATOM     20  C   UNL     1      41.621  51.651  36.288  0.00  0.00    +0.000 A 
ATOM     21  C   UNL     1      39.971  51.640  39.538  0.00  0.00    +0.000 C 
ATOM     22  C   UNL     1      43.731  51.895  35.705  0.00  0.00    +0.000 A 
BRANCH  22  26
ATOM     23  F   UNL     1      45.732  50.772  36.294  0.00  0.00    +0.000 F 
ATOM     24  F   UNL     1      45.710  52.935  36.481  0.00  0.00    +0.000 F 
ATOM     25  F   UNL     1      45.758  52.004  34.505  0.00  0.00    +0.000 F 
ATOM     26  C   UNL     1      45.216  51.907  35.744  0.00  0.00    +0.000 C 
ENDBRANCH  22  26
BRANCH  17  27
ATOM     27  C   UNL     1      39.679  50.055  36.632  0.00  0.00    +0.000 C 
BRANCH  27  28
ATOM     28  C   UNL     1      38.355  50.297  35.947  0.00  0.00    +0.000 C 
ATOM     29  C   UNL     1      37.356  49.408  35.870  0.00  0.00    +0.000 C 
ENDBRANCH  27  28
ENDBRANCH  17  27
ENDBRANCH  11  21
ENDBRANCH   1  11
BRANCH   1  30
ATOM     30  C   UNL     1      40.080  49.401  42.578  0.00  0.00    +0.000 C 
BRANCH  30  34
ATOM     31  F   UNL     1      42.228  50.860  43.781  0.00  0.00    +0.000 F 
ATOM     32  F   UNL     1      43.587  46.797  40.417  0.00  0.00    +0.000 F 
ATOM     33  F   UNL     1      45.523  48.156  41.796  0.00  0.00    +0.000 F 
ATOM     34  C   UNL     1      41.539  49.171  42.261  0.00  0.00    +0.000 A 
ATOM     35  C   UNL     1      42.548  49.875  42.933  0.00  0.00    +0.000 A 
ATOM     36  C   UNL     1      41.908  48.139  41.386  0.00  0.00    +0.000 A 
ATOM     37  C   UNL     1      43.252  47.811  41.227  0.00  0.00    +0.000 A 
ATOM     38  C   UNL     1      43.892  49.548  42.772  0.00  0.00    +0.000 A 
ATOM     39  C   UNL     1      44.235  48.503  41.924  0.00  0.00    +0.000 A 
ENDBRANCH  30  34
ENDBRANCH   1  30
TORSDOF 10
ENDMDL
MODEL 7
REMARK VINA RESULT:      -6.7      4.427     10.057
REMARK  Name = 24778190
REMARK  13 active torsions:
REMARK  status: ('A' for Active; 'I' for Inactive)
REMARK    1  A    between atoms: O_8  and  C_28
REMARK    2  A    between atoms: O_8  and  C_29
REMARK    3  A    between atoms: N_14  and  C_22
REMARK    4  A    between atoms: C_15  and  C_19
REMARK    5  A    between atoms: C_19  and  C_25
REMARK    6  A    between atoms: C_20  and  C_21
REMARK    7  A    between atoms: C_21  and  C_22
REMARK    8  A    between atoms: C_22  and  C_24
REMARK    9  A    between atoms: C_23  and  C_26
REMARK   10  A    between atoms: C_24  and  C_27
REMARK   11  A    between atoms: C_29  and  C_33
REMARK   12  A    between atoms: C_29  and  C_34
REMARK   13  A    between atoms: C_29  and  C_35
REMARK                            x       y       z     vdW  Elec       q    Type
REMARK                         _______ _______ _______ _____ _____    ______ ____
ROOT
ATOM      1  C   UNL     1      39.430  50.510  41.868  0.00  0.00    +0.000 C 
ENDROOT
BRANCH   1   3
ATOM      2  O   UNL     1      36.633  51.105  41.975  0.00  0.00    +0.000 OA
ATOM      3  N   UNL     1      38.680  51.110  42.986  0.00  0.00    +0.000 N 
ATOM      4  C   UNL     1      37.343  51.382  42.928  0.00  0.00    +0.000 C 
ATOM      5  H   UNL     1      39.173  51.440  43.806  0.00  0.00    +0.000 HD
BRANCH   4   6
ATOM      6  O   UNL     1      36.931  51.994  44.065  0.00  0.00    +0.000 OA
BRANCH   6   7
ATOM      7  C   UNL     1      36.391  51.179  45.142  0.00  0.00    +0.000 C 
ATOM      8  C   UNL     1      36.109  49.745  44.668  0.00  0.00    +0.000 C 
ATOM      9  C   UNL     1      37.487  51.122  46.219  0.00  0.00    +0.000 C 
ATOM     10  C   UNL     1      35.149  51.831  45.766  0.00  0.00    +0.000 C 
ENDBRANCH   6   7
ENDBRANCH   4   6
ENDBRANCH   1   3
BRANCH   1  11
ATOM     11  C   UNL     1      40.240  51.597  41.127  0.00  0.00    +0.000 C 
BRANCH  11  21
ATOM     12  O   UNL     1      38.899  52.312  39.267  0.00  0.00    +0.000 OA
ATOM     13  N   UNL     1      40.832  51.204  38.748  0.00  0.00    +0.000 N 
ATOM     14  N   UNL     1      43.007  51.415  37.034  0.00  0.00    +0.000 N 
ATOM     15  N   UNL     1      41.843  51.816  35.235  0.00  0.00    +0.000 NA
ATOM     16  N   UNL     1      43.172  51.933  34.926  0.00  0.00    +0.000 NA
ATOM     17  C   UNL     1      40.490  51.229  37.298  0.00  0.00    +0.000 C 
ATOM     18  C   UNL     1      42.077  50.515  39.114  0.00  0.00    +0.000 C 
ATOM     19  C   UNL     1      43.275  51.166  38.432  0.00  0.00    +0.000 C 
ATOM     20  C   UNL     1      41.743  51.485  36.504  0.00  0.00    +0.000 A 
ATOM     21  C   UNL     1      39.916  51.738  39.649  0.00  0.00    +0.000 C 
ATOM     22  C   UNL     1      43.881  51.700  36.018  0.00  0.00    +0.000 A 
BRANCH  22  26
ATOM     23  F   UNL     1      45.863  50.595  36.697  0.00  0.00    +0.000 F 
ATOM     24  F   UNL     1      45.800  52.755  36.913  0.00  0.00    +0.000 F 
ATOM     25  F   UNL     1      45.967  51.853  34.929  0.00  0.00    +0.000 F 
ATOM     26  C   UNL     1      45.361  51.731  36.137  0.00  0.00    +0.000 C 
ENDBRANCH  22  26
BRANCH  17  27
ATOM     27  C   UNL     1      39.794  49.904  36.879  0.00  0.00    +0.000 C 
BRANCH  27  28
ATOM     28  C   UNL     1      38.493  50.071  36.134  0.00  0.00    +0.000 C 
ATOM     29  C   UNL     1      38.334  50.790  35.015  0.00  0.00    +0.000 C 
ENDBRANCH  27  28
ENDBRANCH  17  27
ENDBRANCH  11  21
ENDBRANCH   1  11
BRANCH   1  30
ATOM     30  C   UNL     1      40.349  49.359  42.350  0.00  0.00    +0.000 C 
BRANCH  30  34
ATOM     31  F   UNL     1      38.950  48.115  44.515  0.00  0.00    +0.000 F 
ATOM     32  F   UNL     1      43.706  50.494  45.694  0.00  0.00    +0.000 F 
ATOM     33  F   UNL     1      42.347  49.093  47.615  0.00  0.00    +0.000 F 
ATOM     34  C   UNL     1      40.803  49.410  43.789  0.00  0.00    +0.000 A 
ATOM     35  C   UNL     1      40.109  48.725  44.796  0.00  0.00    +0.000 A 
ATOM     36  C   UNL     1      42.018  50.031  44.115  0.00  0.00    +0.000 A 
ATOM     37  C   UNL     1      42.526  49.928  45.408  0.00  0.00    +0.000 A 
ATOM     38  C   UNL     1      40.614  48.624  46.089  0.00  0.00    +0.000 A 
ATOM     39  C   UNL     1      41.833  49.220  46.383  0.00  0.00    +0.000 A 
ENDBRANCH  30  34
ENDBRANCH   1  30
TORSDOF 10
ENDMDL
MODEL 8
REMARK VINA RESULT:      -6.7     19.843     23.715
REMARK  Name = 24778190
REMARK  13 active torsions:
REMARK  status: ('A' for Active; 'I' for Inactive)
REMARK    1  A    between atoms: O_8  and  C_28
REMARK    2  A    between atoms: O_8  and  C_29
REMARK    3  A    between atoms: N_14  and  C_22
REMARK    4  A    between atoms: C_15  and  C_19
REMARK    5  A    between atoms: C_19  and  C_25
REMARK    6  A    between atoms: C_20  and  C_21
REMARK    7  A    between atoms: C_21  and  C_22
REMARK    8  A    between atoms: C_22  and  C_24
REMARK    9  A    between atoms: C_23  and  C_26
REMARK   10  A    between atoms: C_24  and  C_27
REMARK   11  A    between atoms: C_29  and  C_33
REMARK   12  A    between atoms: C_29  and  C_34
REMARK   13  A    between atoms: C_29  and  C_35
REMARK                            x       y       z     vdW  Elec       q    Type
REMARK                         _______ _______ _______ _____ _____    ______ ____
ROOT
ATOM      1  C   UNL     1      49.875  68.165  38.877  0.00  0.00    +0.000 C 
ENDROOT
BRANCH   1   3
ATOM      2  O   UNL     1      47.949  70.196  38.279  0.00  0.00    +0.000 OA
ATOM      3  N   UNL     1      49.756  69.500  39.489  0.00  0.00    +0.000 N 
ATOM      4  C   UNL     1      48.813  70.414  39.113  0.00  0.00    +0.000 C 
ATOM      5  H   UNL     1      50.456  69.819  40.149  0.00  0.00    +0.000 HD
BRANCH   4   6
ATOM      6  O   UNL     1      48.979  71.577  39.789  0.00  0.00    +0.000 OA
BRANCH   6   7
ATOM      7  C   UNL     1      48.449  71.682  41.140  0.00  0.00    +0.000 C 
ATOM      8  C   UNL     1      49.463  71.174  42.177  0.00  0.00    +0.000 C 
ATOM      9  C   UNL     1      48.219  73.181  41.389  0.00  0.00    +0.000 C 
ATOM     10  C   UNL     1      47.096  70.968  41.265  0.00  0.00    +0.000 C 
ENDBRANCH   6   7
ENDBRANCH   4   6
ENDBRANCH   1   3
BRANCH   1  11
ATOM     11  C   UNL     1      51.364  67.770  38.750  0.00  0.00    +0.000 C 
BRANCH  11  21
ATOM     12  O   UNL     1      51.542  68.892  36.635  0.00  0.00    +0.000 OA
ATOM     13  N   UNL     1      53.487  68.653  37.813  0.00  0.00    +0.000 N 
ATOM     14  N   UNL     1      55.698  70.143  38.591  0.00  0.00    +0.000 N 
ATOM     15  N   UNL     1      56.088  71.012  36.631  0.00  0.00    +0.000 NA
ATOM     16  N   UNL     1      56.947  71.580  37.536  0.00  0.00    +0.000 NA
ATOM     17  C   UNL     1      54.272  69.244  36.694  0.00  0.00    +0.000 C 
ATOM     18  C   UNL     1      54.254  68.202  38.983  0.00  0.00    +0.000 C 
ATOM     19  C   UNL     1      55.023  69.364  39.604  0.00  0.00    +0.000 C 
ATOM     20  C   UNL     1      55.346  70.131  37.264  0.00  0.00    +0.000 A 
ATOM     21  C   UNL     1      52.119  68.478  37.637  0.00  0.00    +0.000 C 
ATOM     22  C   UNL     1      56.705  71.061  38.728  0.00  0.00    +0.000 A 
BRANCH  22  26
ATOM     23  F   UNL     1      56.538  71.814  40.968  0.00  0.00    +0.000 F 
ATOM     24  F   UNL     1      58.302  72.401  39.847  0.00  0.00    +0.000 F 
ATOM     25  F   UNL     1      58.062  70.334  40.514  0.00  0.00    +0.000 F 
ATOM     26  C   UNL     1      57.398  71.398  39.997  0.00  0.00    +0.000 C 
ENDBRANCH  22  26
BRANCH  17  27
ATOM     27  C   UNL     1      54.858  68.126  35.788  0.00  0.00    +0.000 C 
BRANCH  27  28
ATOM     28  C   UNL     1      54.008  67.754  34.598  0.00  0.00    +0.000 C 
ATOM     29  C   UNL     1      53.636  66.507  34.279  0.00  0.00    +0.000 C 
ENDBRANCH  27  28
ENDBRANCH  17  27
ENDBRANCH  11  21
ENDBRANCH   1  11
BRANCH   1  30
ATOM     30  C   UNL     1      49.079  67.100  39.672  0.00  0.00    +0.000 C 
BRANCH  30  34
ATOM     31  F   UNL     1      46.362  67.945  39.974  0.00  0.00    +0.000 F 
ATOM     32  F   UNL     1      47.329  63.998  36.346  0.00  0.00    +0.000 F 
ATOM     33  F   UNL     1      44.814  65.051  36.606  0.00  0.00    +0.000 F 
ATOM     34  C   UNL     1      47.911  66.456  38.963  0.00  0.00    +0.000 A 
ATOM     35  C   UNL     1      46.609  66.958  39.102  0.00  0.00    +0.000 A 
ATOM     36  C   UNL     1      48.138  65.428  38.036  0.00  0.00    +0.000 A 
ATOM     37  C   UNL     1      47.088  64.954  37.254  0.00  0.00    +0.000 A 
ATOM     38  C   UNL     1      45.559  66.482  38.323  0.00  0.00    +0.000 A 
ATOM     39  C   UNL     1      45.811  65.486  37.389  0.00  0.00    +0.000 A 
ENDBRANCH  30  34
ENDBRANCH   1  30
TORSDOF 10
ENDMDL
MODEL 9
REMARK VINA RESULT:      -6.6     19.615     23.269
REMARK  Name = 24778190
REMARK  13 active torsions:
REMARK  status: ('A' for Active; 'I' for Inactive)
REMARK    1  A    between atoms: O_8  and  C_28
REMARK    2  A    between atoms: O_8  and  C_29
REMARK    3  A    between atoms: N_14  and  C_22
REMARK    4  A    between atoms: C_15  and  C_19
REMARK    5  A    between atoms: C_19  and  C_25
REMARK    6  A    between atoms: C_20  and  C_21
REMARK    7  A    between atoms: C_21  and  C_22
REMARK    8  A    between atoms: C_22  and  C_24
REMARK    9  A    between atoms: C_23  and  C_26
REMARK   10  A    between atoms: C_24  and  C_27
REMARK   11  A    between atoms: C_29  and  C_33
REMARK   12  A    between atoms: C_29  and  C_34
REMARK   13  A    between atoms: C_29  and  C_35
REMARK                            x       y       z     vdW  Elec       q    Type
REMARK                         _______ _______ _______ _____ _____    ______ ____
ROOT
ATOM      1  C   UNL     1      49.694  68.990  38.253  0.00  0.00    +0.000 C 
ENDROOT
BRANCH   1   3
ATOM      2  O   UNL     1      47.530  70.855  38.077  0.00  0.00    +0.000 OA
ATOM      3  N   UNL     1      49.536  70.257  38.990  0.00  0.00    +0.000 N 
ATOM      4  C   UNL     1      48.473  71.097  38.814  0.00  0.00    +0.000 C 
ATOM      5  H   UNL     1      50.284  70.594  39.583  0.00  0.00    +0.000 HD
BRANCH   4   6
ATOM      6  O   UNL     1      48.620  72.216  39.563  0.00  0.00    +0.000 OA
BRANCH   6   7
ATOM      7  C   UNL     1      48.345  72.144  40.990  0.00  0.00    +0.000 C 
ATOM      8  C   UNL     1      49.570  71.642  41.769  0.00  0.00    +0.000 C 
ATOM      9  C   UNL     1      48.048  73.584  41.437  0.00  0.00    +0.000 C 
ATOM     10  C   UNL     1      47.098  71.294  41.274  0.00  0.00    +0.000 C 
ENDBRANCH   6   7
ENDBRANCH   4   6
ENDBRANCH   1   3
BRANCH   1  11
ATOM     11  C   UNL     1      51.085  68.936  37.582  0.00  0.00    +0.000 C 
BRANCH  11  21
ATOM     12  O   UNL     1      51.991  71.126  37.967  0.00  0.00    +0.000 OA
ATOM     13  N   UNL     1      53.153  69.382  38.883  0.00  0.00    +0.000 N 
ATOM     14  N   UNL     1      54.358  68.654  41.276  0.00  0.00    +0.000 N 
ATOM     15  N   UNL     1      55.427  70.530  41.573  0.00  0.00    +0.000 NA
ATOM     16  N   UNL     1      55.614  69.745  42.681  0.00  0.00    +0.000 NA
ATOM     17  C   UNL     1      54.224  70.304  39.353  0.00  0.00    +0.000 C 
ATOM     18  C   UNL     1      53.356  67.952  39.154  0.00  0.00    +0.000 C 
ATOM     19  C   UNL     1      53.471  67.698  40.653  0.00  0.00    +0.000 C 
ATOM     20  C   UNL     1      54.684  69.865  40.717  0.00  0.00    +0.000 A 
ATOM     21  C   UNL     1      52.103  69.916  38.144  0.00  0.00    +0.000 C 
ATOM     22  C   UNL     1      54.958  68.610  42.507  0.00  0.00    +0.000 A 
BRANCH  22  26
ATOM     23  F   UNL     1      54.758  66.273  42.838  0.00  0.00    +0.000 F 
ATOM     24  F   UNL     1      53.816  67.572  44.301  0.00  0.00    +0.000 F 
ATOM     25  F   UNL     1      55.993  67.385  44.236  0.00  0.00    +0.000 F 
ATOM     26  C   UNL     1      54.882  67.477  43.464  0.00  0.00    +0.000 C 
ENDBRANCH  22  26
BRANCH  17  27
ATOM     27  C   UNL     1      55.392  70.350  38.330  0.00  0.00    +0.000 C 
BRANCH  27  28
ATOM     28  C   UNL     1      55.957  71.724  38.064  0.00  0.00    +0.000 C 
ATOM     29  C   UNL     1      57.033  72.244  38.670  0.00  0.00    +0.000 C 
ENDBRANCH  27  28
ENDBRANCH  17  27
ENDBRANCH  11  21
ENDBRANCH   1  11
BRANCH   1  30
ATOM     30  C   UNL     1      49.469  67.764  39.172  0.00  0.00    +0.000 C 
BRANCH  30  34
ATOM     31  F   UNL     1      46.744  68.392  39.779  0.00  0.00    +0.000 F 
ATOM     32  F   UNL     1      47.649  63.836  36.934  0.00  0.00    +0.000 F 
ATOM     33  F   UNL     1      45.089  64.676  37.421  0.00  0.00    +0.000 F 
ATOM     34  C   UNL     1      48.300  66.868  38.836  0.00  0.00    +0.000 A 
ATOM     35  C   UNL     1      46.982  67.262  39.101  0.00  0.00    +0.000 A 
ATOM     36  C   UNL     1      48.515  65.683  38.117  0.00  0.00    +0.000 A 
ATOM     37  C   UNL     1      47.429  64.945  37.653  0.00  0.00    +0.000 A 
ATOM     38  C   UNL     1      45.895  66.523  38.640  0.00  0.00    +0.000 A 
ATOM     39  C   UNL     1      46.129  65.370  37.904  0.00  0.00    +0.000 A 
ENDBRANCH  30  34
ENDBRANCH   1  30
TORSDOF 10
ENDMDL
