MODEL 1
REMARK VINA RESULT:      -8.3      0.000      0.000
REMARK  Name = 20628267
REMARK  7 active torsions:
REMARK  status: ('A' for Active; 'I' for Inactive)
REMARK    1  A    between atoms: N_11  and  C_18
REMARK    2  A    between atoms: C_16  and  C_17
REMARK    3  A    between atoms: C_16  and  C_18
REMARK    4  A    between atoms: C_18  and  C_20
REMARK    5  A    between atoms: C_19  and  C_21
REMARK    6  A    between atoms: C_20  and  C_22
REMARK    7  A    between atoms: C_21  and  C_23
REMARK                            x       y       z     vdW  Elec       q    Type
REMARK                         _______ _______ _______ _____ _____    ______ ____
ROOT
ATOM      1  O   UNL     1      54.451  71.485  36.690  0.00  0.00    +0.000 OA
ATOM      2  N   UNL     1      55.090  70.424  38.607  0.00  0.00    +0.000 N 
ATOM      3  N   UNL     1      56.764  70.728  40.805  0.00  0.00    +0.000 N 
ATOM      4  N   UNL     1      58.534  71.325  39.691  0.00  0.00    +0.000 NA
ATOM      5  N   UNL     1      58.815  71.405  41.038  0.00  0.00    +0.000 NA
ATOM      6  C   UNL     1      54.833  69.614  39.804  0.00  0.00    +0.000 C 
ATOM      7  C   UNL     1      55.403  70.299  41.044  0.00  0.00    +0.000 C 
ATOM      8  C   UNL     1      56.511  70.695  38.308  0.00  0.00    +0.000 C 
ATOM      9  C   UNL     1      57.286  70.931  39.560  0.00  0.00    +0.000 A 
ATOM     10  C   UNL     1      54.141  70.816  37.674  0.00  0.00    +0.000 C 
ATOM     11  C   UNL     1      57.739  71.043  41.707  0.00  0.00    +0.000 A 
ENDROOT
BRANCH  10  12
ATOM     12  C   UNL     1      52.694  70.396  37.923  0.00  0.00    +0.000 C 
BRANCH  12  13
ATOM     13  C   UNL     1      51.653  71.295  37.223  0.00  0.00    +0.000 C 
BRANCH  13  14
ATOM     14  N   UNL     1      51.927  72.711  37.538  0.00  0.00    +0.000 NA
ATOM     15  H   UNL     1      51.123  73.302  37.340  0.00  0.00    +0.000 HD
ATOM     16  H   UNL     1      52.719  73.063  37.002  0.00  0.00    +0.000 HD
ENDBRANCH  13  14
BRANCH  13  17
ATOM     17  C   UNL     1      50.197  70.940  37.624  0.00  0.00    +0.000 C 
BRANCH  17  20
ATOM     18  F   UNL     1      49.145  71.701  42.338  0.00  0.00    +0.000 F 
ATOM     19  F   UNL     1      47.876  74.052  41.734  0.00  0.00    +0.000 F 
ATOM     20  C   UNL     1      49.614  71.795  38.731  0.00  0.00    +0.000 A 
ATOM     21  C   UNL     1      49.673  71.365  40.066  0.00  0.00    +0.000 A 
ATOM     22  C   UNL     1      48.966  73.007  38.435  0.00  0.00    +0.000 A 
ATOM     23  C   UNL     1      49.090  72.132  41.071  0.00  0.00    +0.000 A 
ATOM     24  C   UNL     1      48.389  73.773  39.451  0.00  0.00    +0.000 A 
ATOM     25  C   UNL     1      48.450  73.325  40.765  0.00  0.00    +0.000 A 
ENDBRANCH  17  20
ENDBRANCH  13  17
ENDBRANCH  12  13
ENDBRANCH  10  12
BRANCH  11  26
ATOM     26  C   UNL     1      57.596  70.992  43.183  0.00  0.00    +0.000 C 
BRANCH  26  30
ATOM     27  F   UNL     1      56.001  72.787  43.131  0.00  0.00    +0.000 F 
ATOM     28  F   UNL     1      58.044  73.241  43.697  0.00  0.00    +0.000 F 
ATOM     29  F   UNL     1      56.759  72.148  45.078  0.00  0.00    +0.000 F 
ATOM     30  C   UNL     1      57.078  72.289  43.772  0.00  0.00    +0.000 C 
ENDBRANCH  26  30
ENDBRANCH  11  26
TORSDOF 7
ENDMDL
MODEL 2
REMARK VINA RESULT:      -8.1     22.889     24.534
REMARK  Name = 20628267
REMARK  7 active torsions:
REMARK  status: ('A' for Active; 'I' for Inactive)
REMARK    1  A    between atoms: N_11  and  C_18
REMARK    2  A    between atoms: C_16  and  C_17
REMARK    3  A    between atoms: C_16  and  C_18
REMARK    4  A    between atoms: C_18  and  C_20
REMARK    5  A    between atoms: C_19  and  C_21
REMARK    6  A    between atoms: C_20  and  C_22
REMARK    7  A    between atoms: C_21  and  C_23
REMARK                            x       y       z     vdW  Elec       q    Type
REMARK                         _______ _______ _______ _____ _____    ______ ____
ROOT
ATOM      1  O   UNL     1      40.335  52.100  37.034  0.00  0.00    +0.000 OA
ATOM      2  N   UNL     1      42.255  52.249  35.807  0.00  0.00    +0.000 N 
ATOM      3  N   UNL     1      45.005  52.524  36.100  0.00  0.00    +0.000 N 
ATOM      4  N   UNL     1      44.942  54.156  37.537  0.00  0.00    +0.000 NA
ATOM      5  N   UNL     1      46.255  53.775  37.362  0.00  0.00    +0.000 NA
ATOM      6  C   UNL     1      43.122  51.881  34.681  0.00  0.00    +0.000 C 
ATOM      7  C   UNL     1      44.518  51.519  35.180  0.00  0.00    +0.000 C 
ATOM      8  C   UNL     1      42.709  53.396  36.621  0.00  0.00    +0.000 C 
ATOM      9  C   UNL     1      44.192  53.383  36.782  0.00  0.00    +0.000 A 
ATOM     10  C   UNL     1      40.999  51.720  36.071  0.00  0.00    +0.000 C 
ATOM     11  C   UNL     1      46.286  52.786  36.492  0.00  0.00    +0.000 A 
ENDROOT
BRANCH  10  12
ATOM     12  C   UNL     1      40.480  50.638  35.126  0.00  0.00    +0.000 C 
BRANCH  12  13
ATOM     13  C   UNL     1      38.944  50.490  35.131  0.00  0.00    +0.000 C 
BRANCH  13  14
ATOM     14  N   UNL     1      38.319  51.765  34.726  0.00  0.00    +0.000 NA
ATOM     15  H   UNL     1      37.341  51.641  34.475  0.00  0.00    +0.000 HD
ATOM     16  H   UNL     1      38.801  52.178  33.930  0.00  0.00    +0.000 HD
ENDBRANCH  13  14
BRANCH  13  17
ATOM     17  C   UNL     1      38.395  50.051  36.514  0.00  0.00    +0.000 C 
BRANCH  17  20
ATOM     18  F   UNL     1      34.877  46.862  35.345  0.00  0.00    +0.000 F 
ATOM     19  F   UNL     1      32.954  48.521  36.370  0.00  0.00    +0.000 F 
ATOM     20  C   UNL     1      36.941  49.621  36.515  0.00  0.00    +0.000 A 
ATOM     21  C   UNL     1      36.564  48.395  35.945  0.00  0.00    +0.000 A 
ATOM     22  C   UNL     1      35.945  50.461  37.044  0.00  0.00    +0.000 A 
ATOM     23  C   UNL     1      35.221  48.030  35.904  0.00  0.00    +0.000 A 
ATOM     24  C   UNL     1      34.600  50.084  37.004  0.00  0.00    +0.000 A 
ATOM     25  C   UNL     1      34.246  48.870  36.427  0.00  0.00    +0.000 A 
ENDBRANCH  17  20
ENDBRANCH  13  17
ENDBRANCH  12  13
ENDBRANCH  10  12
BRANCH  11  26
ATOM     26  C   UNL     1      47.495  52.067  36.019  0.00  0.00    +0.000 C 
BRANCH  26  30
ATOM     27  F   UNL     1      47.945  51.757  33.679  0.00  0.00    +0.000 F 
ATOM     28  F   UNL     1      49.357  52.906  34.857  0.00  0.00    +0.000 F 
ATOM     29  F   UNL     1      47.415  53.764  34.362  0.00  0.00    +0.000 F 
ATOM     30  C   UNL     1      48.038  52.617  34.714  0.00  0.00    +0.000 C 
ENDBRANCH  26  30
ENDBRANCH  11  26
TORSDOF 7
ENDMDL
MODEL 3
REMARK VINA RESULT:      -7.6     23.578     26.341
REMARK  Name = 20628267
REMARK  7 active torsions:
REMARK  status: ('A' for Active; 'I' for Inactive)
REMARK    1  A    between atoms: N_11  and  C_18
REMARK    2  A    between atoms: C_16  and  C_17
REMARK    3  A    between atoms: C_16  and  C_18
REMARK    4  A    between atoms: C_18  and  C_20
REMARK    5  A    between atoms: C_19  and  C_21
REMARK    6  A    between atoms: C_20  and  C_22
REMARK    7  A    between atoms: C_21  and  C_23
REMARK                            x       y       z     vdW  Elec       q    Type
REMARK                         _______ _______ _______ _____ _____    ______ ____
ROOT
ATOM      1  O   UNL     1      41.154  53.425  36.404  0.00  0.00    +0.000 OA
ATOM      2  N   UNL     1      40.270  51.369  36.854  0.00  0.00    +0.000 N 
ATOM      3  N   UNL     1      37.856  49.990  36.837  0.00  0.00    +0.000 N 
ATOM      4  N   UNL     1      36.691  51.513  37.864  0.00  0.00    +0.000 NA
ATOM      5  N   UNL     1      35.845  50.492  37.487  0.00  0.00    +0.000 NA
ATOM      6  C   UNL     1      40.299  49.901  36.850  0.00  0.00    +0.000 C 
ATOM      7  C   UNL     1      39.010  49.344  36.249  0.00  0.00    +0.000 C 
ATOM      8  C   UNL     1      39.163  51.988  37.613  0.00  0.00    +0.000 C 
ATOM      9  C   UNL     1      37.903  51.208  37.452  0.00  0.00    +0.000 A 
ATOM     10  C   UNL     1      41.257  52.201  36.345  0.00  0.00    +0.000 C 
ATOM     11  C   UNL     1      36.557  49.574  36.865  0.00  0.00    +0.000 A 
ENDROOT
BRANCH  10  12
ATOM     12  C   UNL     1      42.470  51.538  35.696  0.00  0.00    +0.000 C 
BRANCH  12  13
ATOM     13  C   UNL     1      43.736  52.420  35.692  0.00  0.00    +0.000 C 
BRANCH  13  14
ATOM     14  N   UNL     1      43.573  53.520  34.720  0.00  0.00    +0.000 NA
ATOM     15  H   UNL     1      43.680  54.430  35.162  0.00  0.00    +0.000 HD
ATOM     16  H   UNL     1      42.658  53.489  34.276  0.00  0.00    +0.000 HD
ENDBRANCH  13  14
BRANCH  13  17
ATOM     17  C   UNL     1      45.020  51.614  35.364  0.00  0.00    +0.000 C 
BRANCH  17  20
ATOM     18  F   UNL     1      45.151  49.730  39.874  0.00  0.00    +0.000 F 
ATOM     19  F   UNL     1      47.882  49.931  39.940  0.00  0.00    +0.000 F 
ATOM     20  C   UNL     1      45.790  51.122  36.573  0.00  0.00    +0.000 A 
ATOM     21  C   UNL     1      45.108  50.609  37.687  0.00  0.00    +0.000 A 
ATOM     22  C   UNL     1      47.192  51.214  36.617  0.00  0.00    +0.000 A 
ATOM     23  C   UNL     1      45.819  50.206  38.814  0.00  0.00    +0.000 A 
ATOM     24  C   UNL     1      47.898  50.801  37.750  0.00  0.00    +0.000 A 
ATOM     25  C   UNL     1      47.204  50.305  38.846  0.00  0.00    +0.000 A 
ENDBRANCH  17  20
ENDBRANCH  13  17
ENDBRANCH  12  13
ENDBRANCH  10  12
BRANCH  11  26
ATOM     26  C   UNL     1      36.046  48.308  36.284  0.00  0.00    +0.000 C 
BRANCH  26  30
ATOM     27  F   UNL     1      34.369  47.908  34.610  0.00  0.00    +0.000 F 
ATOM     28  F   UNL     1      34.214  49.704  35.816  0.00  0.00    +0.000 F 
ATOM     29  F   UNL     1      33.776  47.764  36.708  0.00  0.00    +0.000 F 
ATOM     30  C   UNL     1      34.598  48.401  35.845  0.00  0.00    +0.000 C 
ENDBRANCH  26  30
ENDBRANCH  11  26
TORSDOF 7
ENDMDL
MODEL 4
REMARK VINA RESULT:      -7.5     22.199     24.871
REMARK  Name = 20628267
REMARK  7 active torsions:
REMARK  status: ('A' for Active; 'I' for Inactive)
REMARK    1  A    between atoms: N_11  and  C_18
REMARK    2  A    between atoms: C_16  and  C_17
REMARK    3  A    between atoms: C_16  and  C_18
REMARK    4  A    between atoms: C_18  and  C_20
REMARK    5  A    between atoms: C_19  and  C_21
REMARK    6  A    between atoms: C_20  and  C_22
REMARK    7  A    between atoms: C_21  and  C_23
REMARK                            x       y       z     vdW  Elec       q    Type
REMARK                         _______ _______ _______ _____ _____    ______ ____
ROOT
ATOM      1  O   UNL     1      43.867  53.207  36.554  0.00  0.00    +0.000 OA
ATOM      2  N   UNL     1      42.222  51.693  36.096  0.00  0.00    +0.000 N 
ATOM      3  N   UNL     1      39.607  51.050  36.785  0.00  0.00    +0.000 N 
ATOM      4  N   UNL     1      39.874  51.191  38.939  0.00  0.00    +0.000 NA
ATOM      5  N   UNL     1      38.542  50.949  38.676  0.00  0.00    +0.000 NA
ATOM      6  C   UNL     1      41.448  50.832  35.193  0.00  0.00    +0.000 C 
ATOM      7  C   UNL     1      39.952  51.070  35.379  0.00  0.00    +0.000 C 
ATOM      8  C   UNL     1      41.955  51.515  37.538  0.00  0.00    +0.000 C 
ATOM      9  C   UNL     1      40.507  51.267  37.788  0.00  0.00    +0.000 A 
ATOM     10  C   UNL     1      43.264  52.530  35.724  0.00  0.00    +0.000 C 
ATOM     11  C   UNL     1      38.388  50.865  37.369  0.00  0.00    +0.000 A 
ENDROOT
BRANCH  10  12
ATOM     12  C   UNL     1      43.626  52.586  34.241  0.00  0.00    +0.000 C 
BRANCH  12  13
ATOM     13  C   UNL     1      45.008  53.212  33.959  0.00  0.00    +0.000 C 
BRANCH  13  14
ATOM     14  N   UNL     1      44.875  54.277  32.945  0.00  0.00    +0.000 NA
ATOM     15  H   UNL     1      45.047  53.926  32.006  0.00  0.00    +0.000 HD
ATOM     16  H   UNL     1      45.524  55.041  33.123  0.00  0.00    +0.000 HD
ENDBRANCH  13  14
BRANCH  13  17
ATOM     17  C   UNL     1      46.049  52.163  33.486  0.00  0.00    +0.000 C 
BRANCH  17  20
ATOM     18  F   UNL     1      47.453  50.836  37.977  0.00  0.00    +0.000 F 
ATOM     19  F   UNL     1      50.092  51.122  37.298  0.00  0.00    +0.000 F 
ATOM     20  C   UNL     1      47.133  51.841  34.495  0.00  0.00    +0.000 A 
ATOM     21  C   UNL     1      46.794  51.446  35.798  0.00  0.00    +0.000 A 
ATOM     22  C   UNL     1      48.491  51.978  34.157  0.00  0.00    +0.000 A 
ATOM     23  C   UNL     1      47.795  51.201  36.734  0.00  0.00    +0.000 A 
ATOM     24  C   UNL     1      49.489  51.725  35.101  0.00  0.00    +0.000 A 
ATOM     25  C   UNL     1      49.132  51.343  36.389  0.00  0.00    +0.000 A 
ENDBRANCH  17  20
ENDBRANCH  13  17
ENDBRANCH  12  13
ENDBRANCH  10  12
BRANCH  11  26
ATOM     26  C   UNL     1      37.114  50.623  36.647  0.00  0.00    +0.000 C 
BRANCH  26  30
ATOM     27  F   UNL     1      37.229  49.264  34.670  0.00  0.00    +0.000 F 
ATOM     28  F   UNL     1      35.825  48.704  36.224  0.00  0.00    +0.000 F 
ATOM     29  F   UNL     1      37.961  48.409  36.542  0.00  0.00    +0.000 F 
ATOM     30  C   UNL     1      37.049  49.250  36.006  0.00  0.00    +0.000 C 
ENDBRANCH  26  30
ENDBRANCH  11  26
TORSDOF 7
ENDMDL
MODEL 5
REMARK VINA RESULT:      -7.2     24.020     26.117
REMARK  Name = 20628267
REMARK  7 active torsions:
REMARK  status: ('A' for Active; 'I' for Inactive)
REMARK    1  A    between atoms: N_11  and  C_18
REMARK    2  A    between atoms: C_16  and  C_17
REMARK    3  A    between atoms: C_16  and  C_18
REMARK    4  A    between atoms: C_18  and  C_20
REMARK    5  A    between atoms: C_19  and  C_21
REMARK    6  A    between atoms: C_20  and  C_22
REMARK    7  A    between atoms: C_21  and  C_23
REMARK                            x       y       z     vdW  Elec       q    Type
REMARK                         _______ _______ _______ _____ _____    ______ ____
ROOT
ATOM      1  O   UNL     1      41.704  52.517  37.332  0.00  0.00    +0.000 OA
ATOM      2  N   UNL     1      40.785  51.553  39.186  0.00  0.00    +0.000 N 
ATOM      3  N   UNL     1      39.202  52.156  41.389  0.00  0.00    +0.000 N 
ATOM      4  N   UNL     1      40.259  53.967  41.969  0.00  0.00    +0.000 NA
ATOM      5  N   UNL     1      39.163  53.815  42.791  0.00  0.00    +0.000 NA
ATOM      6  C   UNL     1      40.128  50.453  39.901  0.00  0.00    +0.000 C 
ATOM      7  C   UNL     1      38.890  50.959  40.637  0.00  0.00    +0.000 C 
ATOM      8  C   UNL     1      41.241  52.683  40.023  0.00  0.00    +0.000 C 
ATOM      9  C   UNL     1      40.265  52.967  41.114  0.00  0.00    +0.000 A 
ATOM     10  C   UNL     1      41.142  51.551  37.845  0.00  0.00    +0.000 C 
ATOM     11  C   UNL     1      38.527  52.717  42.434  0.00  0.00    +0.000 A 
ENDROOT
BRANCH  10  12
ATOM     12  C   UNL     1      40.797  50.308  37.028  0.00  0.00    +0.000 C 
BRANCH  12  13
ATOM     13  C   UNL     1      39.613  50.507  36.057  0.00  0.00    +0.000 C 
BRANCH  13  14
ATOM     14  N   UNL     1      40.062  51.270  34.875  0.00  0.00    +0.000 NA
ATOM     15  H   UNL     1      41.052  51.499  34.929  0.00  0.00    +0.000 HD
ATOM     16  H   UNL     1      39.541  52.139  34.775  0.00  0.00    +0.000 HD
ENDBRANCH  13  14
BRANCH  13  17
ATOM     17  C   UNL     1      38.414  51.230  36.724  0.00  0.00    +0.000 C 
BRANCH  17  20
ATOM     18  F   UNL     1      35.755  47.386  35.288  0.00  0.00    +0.000 F 
ATOM     19  F   UNL     1      33.462  48.545  36.238  0.00  0.00    +0.000 F 
ATOM     20  C   UNL     1      37.094  50.490  36.633  0.00  0.00    +0.000 A 
ATOM     21  C   UNL     1      37.027  49.232  36.016  0.00  0.00    +0.000 A 
ATOM     22  C   UNL     1      35.911  51.071  37.122  0.00  0.00    +0.000 A 
ATOM     23  C   UNL     1      35.802  48.581  35.891  0.00  0.00    +0.000 A 
ATOM     24  C   UNL     1      34.687  50.409  36.998  0.00  0.00    +0.000 A 
ATOM     25  C   UNL     1      34.641  49.167  36.375  0.00  0.00    +0.000 A 
ENDBRANCH  17  20
ENDBRANCH  13  17
ENDBRANCH  12  13
ENDBRANCH  10  12
BRANCH  11  26
ATOM     26  C   UNL     1      37.287  52.179  43.047  0.00  0.00    +0.000 C 
BRANCH  26  30
ATOM     27  F   UNL     1      37.578  49.846  43.543  0.00  0.00    +0.000 F 
ATOM     28  F   UNL     1      36.574  51.093  45.005  0.00  0.00    +0.000 F 
ATOM     29  F   UNL     1      38.725  51.292  44.713  0.00  0.00    +0.000 F 
ATOM     30  C   UNL     1      37.555  51.089  44.066  0.00  0.00    +0.000 C 
ENDBRANCH  26  30
ENDBRANCH  11  26
TORSDOF 7
ENDMDL
MODEL 6
REMARK VINA RESULT:      -7.1      1.759      2.279
REMARK  Name = 20628267
REMARK  7 active torsions:
REMARK  status: ('A' for Active; 'I' for Inactive)
REMARK    1  A    between atoms: N_11  and  C_18
REMARK    2  A    between atoms: C_16  and  C_17
REMARK    3  A    between atoms: C_16  and  C_18
REMARK    4  A    between atoms: C_18  and  C_20
REMARK    5  A    between atoms: C_19  and  C_21
REMARK    6  A    between atoms: C_20  and  C_22
REMARK    7  A    between atoms: C_21  and  C_23
REMARK                            x       y       z     vdW  Elec       q    Type
REMARK                         _______ _______ _______ _____ _____    ______ ____
ROOT
ATOM      1  O   UNL     1      53.844  71.334  36.562  0.00  0.00    +0.000 OA
ATOM      2  N   UNL     1      54.468  70.795  38.691  0.00  0.00    +0.000 N 
ATOM      3  N   UNL     1      56.456  71.299  40.566  0.00  0.00    +0.000 N 
ATOM      4  N   UNL     1      58.145  71.005  39.226  0.00  0.00    +0.000 NA
ATOM      5  N   UNL     1      58.622  71.422  40.450  0.00  0.00    +0.000 NA
ATOM      6  C   UNL     1      54.192  70.505  40.103  0.00  0.00    +0.000 C 
ATOM      7  C   UNL     1      55.079  71.358  41.006  0.00  0.00    +0.000 C 
ATOM      8  C   UNL     1      55.856  70.556  38.245  0.00  0.00    +0.000 C 
ATOM      9  C   UNL     1      56.832  70.949  39.301  0.00  0.00    +0.000 A 
ATOM     10  C   UNL     1      53.522  71.120  37.729  0.00  0.00    +0.000 C 
ATOM     11  C   UNL     1      57.595  71.599  41.257  0.00  0.00    +0.000 A 
ENDROOT
BRANCH  10  12
ATOM     12  C   UNL     1      52.066  71.214  38.180  0.00  0.00    +0.000 C 
BRANCH  12  13
ATOM     13  C   UNL     1      51.262  72.322  37.467  0.00  0.00    +0.000 C 
BRANCH  13  14
ATOM     14  N   UNL     1      52.144  73.471  37.179  0.00  0.00    +0.000 NA
ATOM     15  H   UNL     1      51.936  74.264  37.781  0.00  0.00    +0.000 HD
ATOM     16  H   UNL     1      52.052  73.774  36.212  0.00  0.00    +0.000 HD
ENDBRANCH  13  14
BRANCH  13  17
ATOM     17  C   UNL     1      50.038  72.793  38.296  0.00  0.00    +0.000 C 
BRANCH  17  20
ATOM     18  F   UNL     1      47.356  68.714  38.571  0.00  0.00    +0.000 F 
ATOM     19  F   UNL     1      47.362  68.827  41.308  0.00  0.00    +0.000 F 
ATOM     20  C   UNL     1      49.358  71.706  39.103  0.00  0.00    +0.000 A 
ATOM     21  C   UNL     1      48.677  70.663  38.456  0.00  0.00    +0.000 A 
ATOM     22  C   UNL     1      49.359  71.749  40.509  0.00  0.00    +0.000 A 
ATOM     23  C   UNL     1      48.012  69.696  39.205  0.00  0.00    +0.000 A 
ATOM     24  C   UNL     1      48.694  70.770  41.252  0.00  0.00    +0.000 A 
ATOM     25  C   UNL     1      48.018  69.751  40.592  0.00  0.00    +0.000 A 
ENDBRANCH  17  20
ENDBRANCH  13  17
ENDBRANCH  12  13
ENDBRANCH  10  12
BRANCH  11  26
ATOM     26  C   UNL     1      57.651  72.055  42.668  0.00  0.00    +0.000 C 
BRANCH  26  30
ATOM     27  F   UNL     1      58.604  69.978  43.410  0.00  0.00    +0.000 F 
ATOM     28  F   UNL     1      56.465  70.263  43.620  0.00  0.00    +0.000 F 
ATOM     29  F   UNL     1      57.832  71.349  44.925  0.00  0.00    +0.000 F 
ATOM     30  C   UNL     1      57.660  70.908  43.660  0.00  0.00    +0.000 C 
ENDBRANCH  26  30
ENDBRANCH  11  26
TORSDOF 7
ENDMDL
MODEL 7
REMARK VINA RESULT:      -7.1      1.245      2.048
REMARK  Name = 20628267
REMARK  7 active torsions:
REMARK  status: ('A' for Active; 'I' for Inactive)
REMARK    1  A    between atoms: N_11  and  C_18
REMARK    2  A    between atoms: C_16  and  C_17
REMARK    3  A    between atoms: C_16  and  C_18
REMARK    4  A    between atoms: C_18  and  C_20
REMARK    5  A    between atoms: C_19  and  C_21
REMARK    6  A    between atoms: C_20  and  C_22
REMARK    7  A    between atoms: C_21  and  C_23
REMARK                            x       y       z     vdW  Elec       q    Type
REMARK                         _______ _______ _______ _____ _____    ______ ____
ROOT
ATOM      1  O   UNL     1      54.457  71.624  36.513  0.00  0.00    +0.000 OA
ATOM      2  N   UNL     1      54.552  70.630  38.565  0.00  0.00    +0.000 N 
ATOM      3  N   UNL     1      56.136  70.500  40.845  0.00  0.00    +0.000 N 
ATOM      4  N   UNL     1      58.031  70.208  39.818  0.00  0.00    +0.000 NA
ATOM      5  N   UNL     1      58.278  70.328  41.168  0.00  0.00    +0.000 NA
ATOM      6  C   UNL     1      53.952  70.137  39.811  0.00  0.00    +0.000 C 
ATOM      7  C   UNL     1      54.711  70.679  41.020  0.00  0.00    +0.000 C 
ATOM      8  C   UNL     1      55.971  70.276  38.351  0.00  0.00    +0.000 C 
ATOM      9  C   UNL     1      56.735  70.330  39.630  0.00  0.00    +0.000 A 
ATOM     10  C   UNL     1      53.872  71.254  37.529  0.00  0.00    +0.000 C 
ATOM     11  C   UNL     1      57.126  70.505  41.785  0.00  0.00    +0.000 A 
ENDROOT
BRANCH  10  12
ATOM     12  C   UNL     1      52.372  71.476  37.706  0.00  0.00    +0.000 C 
BRANCH  12  13
ATOM     13  C   UNL     1      51.512  70.248  37.339  0.00  0.00    +0.000 C 
BRANCH  13  14
ATOM     14  N   UNL     1      51.551  70.031  35.879  0.00  0.00    +0.000 NA
ATOM     15  H   UNL     1      51.292  70.870  35.367  0.00  0.00    +0.000 HD
ATOM     16  H   UNL     1      50.921  69.281  35.599  0.00  0.00    +0.000 HD
ENDBRANCH  13  14
BRANCH  13  17
ATOM     17  C   UNL     1      50.040  70.393  37.810  0.00  0.00    +0.000 C 
BRANCH  17  20
ATOM     18  F   UNL     1      48.613  72.515  41.977  0.00  0.00    +0.000 F 
ATOM     19  F   UNL     1      49.469  70.360  43.434  0.00  0.00    +0.000 F 
ATOM     20  C   UNL     1      49.847  70.366  39.312  0.00  0.00    +0.000 A 
ATOM     21  C   UNL     1      49.276  71.464  39.974  0.00  0.00    +0.000 A 
ATOM     22  C   UNL     1      50.276  69.263  40.072  0.00  0.00    +0.000 A 
ATOM     23  C   UNL     1      49.148  71.453  41.361  0.00  0.00    +0.000 A 
ATOM     24  C   UNL     1      50.138  69.257  41.462  0.00  0.00    +0.000 A 
ATOM     25  C   UNL     1      49.579  70.359  42.099  0.00  0.00    +0.000 A 
ENDBRANCH  17  20
ENDBRANCH  13  17
ENDBRANCH  12  13
ENDBRANCH  10  12
BRANCH  11  26
ATOM     26  C   UNL     1      56.928  70.690  43.244  0.00  0.00    +0.000 C 
BRANCH  26  30
ATOM     27  F   UNL     1      56.930  72.325  45.003  0.00  0.00    +0.000 F 
ATOM     28  F   UNL     1      55.897  72.800  43.157  0.00  0.00    +0.000 F 
ATOM     29  F   UNL     1      58.076  72.765  43.197  0.00  0.00    +0.000 F 
ATOM     30  C   UNL     1      56.972  72.145  43.668  0.00  0.00    +0.000 C 
ENDBRANCH  26  30
ENDBRANCH  11  26
TORSDOF 7
ENDMDL
MODEL 8
REMARK VINA RESULT:      -6.9      2.242      3.141
REMARK  Name = 20628267
REMARK  7 active torsions:
REMARK  status: ('A' for Active; 'I' for Inactive)
REMARK    1  A    between atoms: N_11  and  C_18
REMARK    2  A    between atoms: C_16  and  C_17
REMARK    3  A    between atoms: C_16  and  C_18
REMARK    4  A    between atoms: C_18  and  C_20
REMARK    5  A    between atoms: C_19  and  C_21
REMARK    6  A    between atoms: C_20  and  C_22
REMARK    7  A    between atoms: C_21  and  C_23
REMARK                            x       y       z     vdW  Elec       q    Type
REMARK                         _______ _______ _______ _____ _____    ______ ____
ROOT
ATOM      1  O   UNL     1      57.448  70.804  36.069  0.00  0.00    +0.000 OA
ATOM      2  N   UNL     1      57.087  70.509  38.304  0.00  0.00    +0.000 N 
ATOM      3  N   UNL     1      57.940  71.432  40.783  0.00  0.00    +0.000 N 
ATOM      4  N   UNL     1      60.074  71.304  40.377  0.00  0.00    +0.000 NA
ATOM      5  N   UNL     1      59.896  71.871  41.621  0.00  0.00    +0.000 NA
ATOM      6  C   UNL     1      56.230  70.277  39.473  0.00  0.00    +0.000 C 
ATOM      7  C   UNL     1      56.515  71.314  40.557  0.00  0.00    +0.000 C 
ATOM      8  C   UNL     1      58.543  70.452  38.552  0.00  0.00    +0.000 C 
ATOM      9  C   UNL     1      58.885  71.058  39.871  0.00  0.00    +0.000 A 
ATOM     10  C   UNL     1      56.654  70.623  36.990  0.00  0.00    +0.000 C 
ATOM     11  C   UNL     1      58.602  71.945  41.861  0.00  0.00    +0.000 A 
ENDROOT
BRANCH  10  12
ATOM     12  C   UNL     1      55.151  70.528  36.735  0.00  0.00    +0.000 C 
BRANCH  12  13
ATOM     13  C   UNL     1      54.664  69.102  36.402  0.00  0.00    +0.000 C 
BRANCH  13  14
ATOM     14  N   UNL     1      55.273  68.650  35.136  0.00  0.00    +0.000 NA
ATOM     15  H   UNL     1      55.887  67.851  35.278  0.00  0.00    +0.000 HD
ATOM     16  H   UNL     1      55.816  69.393  34.700  0.00  0.00    +0.000 HD
ENDBRANCH  13  14
BRANCH  13  17
ATOM     17  C   UNL     1      53.118  69.011  36.304  0.00  0.00    +0.000 C 
BRANCH  17  20
ATOM     18  F   UNL     1      50.223  72.520  38.097  0.00  0.00    +0.000 F 
ATOM     19  F   UNL     1      50.454  71.496  40.627  0.00  0.00    +0.000 F 
ATOM     20  C   UNL     1      52.369  69.652  37.455  0.00  0.00    +0.000 A 
ATOM     21  C   UNL     1      51.594  70.802  37.243  0.00  0.00    +0.000 A 
ATOM     22  C   UNL     1      52.474  69.133  38.758  0.00  0.00    +0.000 A 
ATOM     23  C   UNL     1      50.949  71.415  38.315  0.00  0.00    +0.000 A 
ATOM     24  C   UNL     1      51.818  69.750  39.826  0.00  0.00    +0.000 A 
ATOM     25  C   UNL     1      51.063  70.894  39.597  0.00  0.00    +0.000 A 
ENDBRANCH  17  20
ENDBRANCH  13  17
ENDBRANCH  12  13
ENDBRANCH  10  12
BRANCH  11  26
ATOM     26  C   UNL     1      57.962  72.499  43.080  0.00  0.00    +0.000 C 
BRANCH  26  30
ATOM     27  F   UNL     1      58.423  70.425  44.203  0.00  0.00    +0.000 F 
ATOM     28  F   UNL     1      56.377  70.853  43.627  0.00  0.00    +0.000 F 
ATOM     29  F   UNL     1      57.281  71.943  45.283  0.00  0.00    +0.000 F 
ATOM     30  C   UNL     1      57.529  71.426  44.060  0.00  0.00    +0.000 C 
ENDBRANCH  26  30
ENDBRANCH  11  26
TORSDOF 7
ENDMDL
MODEL 9
REMARK VINA RESULT:      -6.8      1.580      2.001
REMARK  Name = 20628267
REMARK  7 active torsions:
REMARK  status: ('A' for Active; 'I' for Inactive)
REMARK    1  A    between atoms: N_11  and  C_18
REMARK    2  A    between atoms: C_16  and  C_17
REMARK    3  A    between atoms: C_16  and  C_18
REMARK    4  A    between atoms: C_18  and  C_20
REMARK    5  A    between atoms: C_19  and  C_21
REMARK    6  A    between atoms: C_20  and  C_22
REMARK    7  A    between atoms: C_21  and  C_23
REMARK                            x       y       z     vdW  Elec       q    Type
REMARK                         _______ _______ _______ _____ _____    ______ ____
ROOT
ATOM      1  O   UNL     1      54.930  71.433  36.290  0.00  0.00    +0.000 OA
ATOM      2  N   UNL     1      55.328  70.847  38.460  0.00  0.00    +0.000 N 
ATOM      3  N   UNL     1      56.949  71.495  40.623  0.00  0.00    +0.000 N 
ATOM      4  N   UNL     1      58.829  71.519  39.529  0.00  0.00    +0.000 NA
ATOM      5  N   UNL     1      59.070  71.917  40.826  0.00  0.00    +0.000 NA
ATOM      6  C   UNL     1      54.906  70.433  39.804  0.00  0.00    +0.000 C 
ATOM      7  C   UNL     1      55.529  71.339  40.862  0.00  0.00    +0.000 C 
ATOM      8  C   UNL     1      56.784  70.828  38.209  0.00  0.00    +0.000 C 
ATOM      9  C   UNL     1      57.540  71.281  39.411  0.00  0.00    +0.000 A 
ATOM     10  C   UNL     1      54.485  71.103  37.388  0.00  0.00    +0.000 C 
ATOM     11  C   UNL     1      57.927  71.901  41.483  0.00  0.00    +0.000 A 
ENDROOT
BRANCH  10  12
ATOM     12  C   UNL     1      52.982  70.970  37.628  0.00  0.00    +0.000 C 
BRANCH  12  13
ATOM     13  C   UNL     1      52.498  69.510  37.758  0.00  0.00    +0.000 C 
BRANCH  13  14
ATOM     14  N   UNL     1      52.104  68.995  36.432  0.00  0.00    +0.000 NA
ATOM     15  H   UNL     1      51.175  69.313  36.167  0.00  0.00    +0.000 HD
ATOM     16  H   UNL     1      52.107  67.977  36.414  0.00  0.00    +0.000 HD
ENDBRANCH  13  14
BRANCH  13  17
ATOM     17  C   UNL     1      51.316  69.364  38.752  0.00  0.00    +0.000 C 
BRANCH  17  20
ATOM     18  F   UNL     1      49.085  73.471  40.188  0.00  0.00    +0.000 F 
ATOM     19  F   UNL     1      47.142  73.149  38.283  0.00  0.00    +0.000 F 
ATOM     20  C   UNL     1      50.222  70.402  38.598  0.00  0.00    +0.000 A 
ATOM     21  C   UNL     1      50.166  71.507  39.462  0.00  0.00    +0.000 A 
ATOM     22  C   UNL     1      49.223  70.252  37.621  0.00  0.00    +0.000 A 
ATOM     23  C   UNL     1      49.130  72.429  39.346  0.00  0.00    +0.000 A 
ATOM     24  C   UNL     1      48.190  71.186  37.508  0.00  0.00    +0.000 A 
ATOM     25  C   UNL     1      48.147  72.268  38.379  0.00  0.00    +0.000 A 
ENDBRANCH  17  20
ENDBRANCH  13  17
ENDBRANCH  12  13
ENDBRANCH  10  12
BRANCH  11  26
ATOM     26  C   UNL     1      57.725  72.269  42.906  0.00  0.00    +0.000 C 
BRANCH  26  30
ATOM     27  F   UNL     1      58.582  70.111  43.523  0.00  0.00    +0.000 F 
ATOM     28  F   UNL     1      56.457  70.477  43.748  0.00  0.00    +0.000 F 
ATOM     29  F   UNL     1      57.866  71.421  45.118  0.00  0.00    +0.000 F 
ATOM     30  C   UNL     1      57.679  71.065  43.827  0.00  0.00    +0.000 C 
ENDBRANCH  26  30
ENDBRANCH  11  26
TORSDOF 7
ENDMDL
