MODEL 1
REMARK VINA RESULT:      -7.7      0.000      0.000
REMARK  Name = 11441300
REMARK  5 active torsions:
REMARK  status: ('A' for Active; 'I' for Inactive)
REMARK    1  A    between atoms: N_7  and  C_13
REMARK    2  A    between atoms: C_13  and  C_14
REMARK    3  A    between atoms: C_13  and  C_17
REMARK    4  A    between atoms: C_14  and  C_15
REMARK    5  A    between atoms: C_17  and  C_18
REMARK                            x       y       z     vdW  Elec       q    Type
REMARK                         _______ _______ _______ _____ _____    ______ ____
ROOT
ATOM      1  C   UNL     1      47.214  74.722  50.087  0.00  0.00    +0.000 C 
ENDROOT
BRANCH   1   2
ATOM      2  N   UNL     1      46.114  74.876  51.067  0.00  0.00    +0.000 NA
ATOM      3  H   UNL     1      45.267  75.188  50.595  0.00  0.00    +0.000 HD
ATOM      4  H   UNL     1      45.886  73.965  51.470  0.00  0.00    +0.000 HD
ENDBRANCH   1   2
BRANCH   1   5
ATOM      5  C   UNL     1      46.979  73.373  49.375  0.00  0.00    +0.000 C 
BRANCH   5  14
ATOM      6  O   UNL     1      45.814  72.074  51.041  0.00  0.00    +0.000 OA
ATOM      7  N   UNL     1      47.718  71.139  50.167  0.00  0.00    +0.000 N 
ATOM      8  N   UNL     1      50.021  69.840  50.970  0.00  0.00    +0.000 N 
ATOM      9  N   UNL     1      51.253  70.477  49.289  0.00  0.00    +0.000 NA
ATOM     10  N   UNL     1      52.051  69.808  50.193  0.00  0.00    +0.000 NA
ATOM     11  C   UNL     1      47.579  69.917  50.976  0.00  0.00    +0.000 C 
ATOM     12  C   UNL     1      48.811  71.114  49.180  0.00  0.00    +0.000 C 
ATOM     13  C   UNL     1      48.847  69.668  51.795  0.00  0.00    +0.000 C 
ATOM     14  C   UNL     1      46.762  72.151  50.262  0.00  0.00    +0.000 C 
ATOM     15  C   UNL     1      50.031  70.504  49.774  0.00  0.00    +0.000 A 
ATOM     16  C   UNL     1      51.293  69.440  51.203  0.00  0.00    +0.000 A 
ENDBRANCH   5  14
ENDBRANCH   1   5
BRANCH   1  17
ATOM     17  C   UNL     1      47.222  75.929  49.115  0.00  0.00    +0.000 C 
BRANCH  17  21
ATOM     18  F   UNL     1      47.875  78.005  47.241  0.00  0.00    +0.000 F 
ATOM     19  F   UNL     1      50.802  77.863  51.836  0.00  0.00    +0.000 F 
ATOM     20  F   UNL     1      51.247  79.818  49.974  0.00  0.00    +0.000 F 
ATOM     21  C   UNL     1      48.331  76.947  49.317  0.00  0.00    +0.000 A 
ATOM     22  C   UNL     1      48.588  77.953  48.374  0.00  0.00    +0.000 A 
ATOM     23  C   UNL     1      49.101  76.925  50.492  0.00  0.00    +0.000 A 
ATOM     24  C   UNL     1      50.084  77.893  50.705  0.00  0.00    +0.000 A 
ATOM     25  C   UNL     1      49.570  78.920  48.586  0.00  0.00    +0.000 A 
ATOM     26  C   UNL     1      50.313  78.884  49.759  0.00  0.00    +0.000 A 
ENDBRANCH  17  21
ENDBRANCH   1  17
TORSDOF 5
ENDMDL
MODEL 2
REMARK VINA RESULT:      -7.7     26.768     28.124
REMARK  Name = 11441300
REMARK  5 active torsions:
REMARK  status: ('A' for Active; 'I' for Inactive)
REMARK    1  A    between atoms: N_7  and  C_13
REMARK    2  A    between atoms: C_13  and  C_14
REMARK    3  A    between atoms: C_13  and  C_17
REMARK    4  A    between atoms: C_14  and  C_15
REMARK    5  A    between atoms: C_17  and  C_18
REMARK                            x       y       z     vdW  Elec       q    Type
REMARK                         _______ _______ _______ _____ _____    ______ ____
ROOT
ATOM      1  C   UNL     1      45.727  52.464  33.665  0.00  0.00    +0.000 C 
ENDROOT
BRANCH   1   2
ATOM      2  N   UNL     1      45.354  53.844  33.277  0.00  0.00    +0.000 NA
ATOM      3  H   UNL     1      44.679  54.224  33.939  0.00  0.00    +0.000 HD
ATOM      4  H   UNL     1      46.174  54.450  33.340  0.00  0.00    +0.000 HD
ENDBRANCH   1   2
BRANCH   1   5
ATOM      5  C   UNL     1      47.131  52.209  33.076  0.00  0.00    +0.000 C 
BRANCH   5  14
ATOM      6  O   UNL     1      48.446  54.023  33.970  0.00  0.00    +0.000 OA
ATOM      7  N   UNL     1      49.261  51.907  34.316  0.00  0.00    +0.000 N 
ATOM      8  N   UNL     1      51.616  50.472  34.146  0.00  0.00    +0.000 N 
ATOM      9  N   UNL     1      50.689  48.534  33.777  0.00  0.00    +0.000 NA
ATOM     10  N   UNL     1      52.057  48.401  33.656  0.00  0.00    +0.000 NA
ATOM     11  C   UNL     1      50.427  52.398  35.067  0.00  0.00    +0.000 C 
ATOM     12  C   UNL     1      49.112  50.442  34.279  0.00  0.00    +0.000 C 
ATOM     13  C   UNL     1      51.725  51.883  34.441  0.00  0.00    +0.000 C 
ATOM     14  C   UNL     1      48.315  52.809  33.827  0.00  0.00    +0.000 C 
ATOM     15  C   UNL     1      50.432  49.793  34.060  0.00  0.00    +0.000 A 
ATOM     16  C   UNL     1      52.597  49.581  33.872  0.00  0.00    +0.000 A 
ENDBRANCH   5  14
ENDBRANCH   1   5
BRANCH   1  17
ATOM     17  C   UNL     1      45.681  52.324  35.207  0.00  0.00    +0.000 C 
BRANCH  17  21
ATOM     18  F   UNL     1      45.624  51.075  37.793  0.00  0.00    +0.000 F 
ATOM     19  F   UNL     1      41.028  50.841  34.875  0.00  0.00    +0.000 F 
ATOM     20  F   UNL     1      41.126  49.762  37.387  0.00  0.00    +0.000 F 
ATOM     21  C   UNL     1      44.478  51.594  35.780  0.00  0.00    +0.000 A 
ATOM     22  C   UNL     1      44.504  51.023  37.061  0.00  0.00    +0.000 A 
ATOM     23  C   UNL     1      43.285  51.517  35.042  0.00  0.00    +0.000 A 
ATOM     24  C   UNL     1      42.160  50.895  35.588  0.00  0.00    +0.000 A 
ATOM     25  C   UNL     1      43.382  50.401  37.606  0.00  0.00    +0.000 A 
ATOM     26  C   UNL     1      42.210  50.345  36.863  0.00  0.00    +0.000 A 
ENDBRANCH  17  21
ENDBRANCH   1  17
TORSDOF 5
ENDMDL
MODEL 3
REMARK VINA RESULT:      -7.4     26.581     28.158
REMARK  Name = 11441300
REMARK  5 active torsions:
REMARK  status: ('A' for Active; 'I' for Inactive)
REMARK    1  A    between atoms: N_7  and  C_13
REMARK    2  A    between atoms: C_13  and  C_14
REMARK    3  A    between atoms: C_13  and  C_17
REMARK    4  A    between atoms: C_14  and  C_15
REMARK    5  A    between atoms: C_17  and  C_18
REMARK                            x       y       z     vdW  Elec       q    Type
REMARK                         _______ _______ _______ _____ _____    ______ ____
ROOT
ATOM      1  C   UNL     1      47.317  51.901  35.936  0.00  0.00    +0.000 C 
ENDROOT
BRANCH   1   2
ATOM      2  N   UNL     1      47.535  53.325  36.282  0.00  0.00    +0.000 NA
ATOM      3  H   UNL     1      47.591  53.886  35.433  0.00  0.00    +0.000 HD
ATOM      4  H   UNL     1      46.726  53.679  36.794  0.00  0.00    +0.000 HD
ENDBRANCH   1   2
BRANCH   1   5
ATOM      5  C   UNL     1      48.703  51.223  35.988  0.00  0.00    +0.000 C 
BRANCH   5  14
ATOM      6  O   UNL     1      49.426  52.409  34.017  0.00  0.00    +0.000 OA
ATOM      7  N   UNL     1      51.005  51.115  35.063  0.00  0.00    +0.000 N 
ATOM      8  N   UNL     1      52.962  49.253  34.486  0.00  0.00    +0.000 N 
ATOM      9  N   UNL     1      52.884  48.222  36.404  0.00  0.00    +0.000 NA
ATOM     10  N   UNL     1      53.731  47.530  35.565  0.00  0.00    +0.000 NA
ATOM     11  C   UNL     1      52.055  51.489  34.103  0.00  0.00    +0.000 C 
ATOM     12  C   UNL     1      51.459  50.297  36.200  0.00  0.00    +0.000 C 
ATOM     13  C   UNL     1      52.675  50.240  33.470  0.00  0.00    +0.000 C 
ATOM     14  C   UNL     1      49.723  51.653  34.939  0.00  0.00    +0.000 C 
ATOM     15  C   UNL     1      52.413  49.254  35.739  0.00  0.00    +0.000 A 
ATOM     16  C   UNL     1      53.758  48.161  34.411  0.00  0.00    +0.000 A 
ENDBRANCH   5  14
ENDBRANCH   1   5
BRANCH   1  17
ATOM     17  C   UNL     1      46.297  51.274  36.919  0.00  0.00    +0.000 C 
BRANCH  17  21
ATOM     18  F   UNL     1      44.129  50.178  38.453  0.00  0.00    +0.000 F 
ATOM     19  F   UNL     1      42.892  52.069  33.494  0.00  0.00    +0.000 F 
ATOM     20  F   UNL     1      40.934  51.055  35.115  0.00  0.00    +0.000 F 
ATOM     21  C   UNL     1      44.865  51.169  36.424  0.00  0.00    +0.000 A 
ATOM     22  C   UNL     1      43.844  50.643  37.230  0.00  0.00    +0.000 A 
ATOM     23  C   UNL     1      44.525  51.644  35.147  0.00  0.00    +0.000 A 
ATOM     24  C   UNL     1      43.200  51.600  34.711  0.00  0.00    +0.000 A 
ATOM     25  C   UNL     1      42.520  50.598  36.795  0.00  0.00    +0.000 A 
ATOM     26  C   UNL     1      42.205  51.083  35.532  0.00  0.00    +0.000 A 
ENDBRANCH  17  21
ENDBRANCH   1  17
TORSDOF 5
ENDMDL
MODEL 4
REMARK VINA RESULT:      -7.3     26.669     27.924
REMARK  Name = 11441300
REMARK  5 active torsions:
REMARK  status: ('A' for Active; 'I' for Inactive)
REMARK    1  A    between atoms: N_7  and  C_13
REMARK    2  A    between atoms: C_13  and  C_14
REMARK    3  A    between atoms: C_13  and  C_17
REMARK    4  A    between atoms: C_14  and  C_15
REMARK    5  A    between atoms: C_17  and  C_18
REMARK                            x       y       z     vdW  Elec       q    Type
REMARK                         _______ _______ _______ _____ _____    ______ ____
ROOT
ATOM      1  C   UNL     1      48.428  51.790  34.738  0.00  0.00    +0.000 C 
ENDROOT
BRANCH   1   2
ATOM      2  N   UNL     1      49.221  52.894  34.149  0.00  0.00    +0.000 NA
ATOM      3  H   UNL     1      49.177  52.852  33.131  0.00  0.00    +0.000 HD
ATOM      4  H   UNL     1      48.804  53.789  34.406  0.00  0.00    +0.000 HD
ENDBRANCH   1   2
BRANCH   1   5
ATOM      5  C   UNL     1      49.442  50.816  35.375  0.00  0.00    +0.000 C 
BRANCH   5  14
ATOM      6  O   UNL     1      50.021  49.248  33.637  0.00  0.00    +0.000 OA
ATOM      7  N   UNL     1      51.752  50.454  34.538  0.00  0.00    +0.000 N 
ATOM      8  N   UNL     1      54.317  50.111  35.505  0.00  0.00    +0.000 N 
ATOM      9  N   UNL     1      54.282  51.801  36.881  0.00  0.00    +0.000 NA
ATOM     10  N   UNL     1      55.454  51.100  37.072  0.00  0.00    +0.000 NA
ATOM     11  C   UNL     1      52.747  49.828  33.654  0.00  0.00    +0.000 C 
ATOM     12  C   UNL     1      52.264  51.546  35.384  0.00  0.00    +0.000 C 
ATOM     13  C   UNL     1      53.875  49.198  34.476  0.00  0.00    +0.000 C 
ATOM     14  C   UNL     1      50.405  50.104  34.430  0.00  0.00    +0.000 C 
ATOM     15  C   UNL     1      53.595  51.188  35.943  0.00  0.00    +0.000 A 
ATOM     16  C   UNL     1      55.453  50.080  36.241  0.00  0.00    +0.000 A 
ENDBRANCH   5  14
ENDBRANCH   1   5
BRANCH   1  17
ATOM     17  C   UNL     1      47.412  52.362  35.758  0.00  0.00    +0.000 C 
BRANCH  17  21
ATOM     18  F   UNL     1      46.026  53.025  33.330  0.00  0.00    +0.000 F 
ATOM     19  F   UNL     1      43.150  50.387  37.134  0.00  0.00    +0.000 F 
ATOM     20  F   UNL     1      42.003  51.033  34.735  0.00  0.00    +0.000 F 
ATOM     21  C   UNL     1      45.948  52.051  35.495  0.00  0.00    +0.000 A 
ATOM     22  C   UNL     1      45.333  52.380  34.278  0.00  0.00    +0.000 A 
ATOM     23  C   UNL     1      45.187  51.377  36.463  0.00  0.00    +0.000 A 
ATOM     24  C   UNL     1      43.857  51.040  36.203  0.00  0.00    +0.000 A 
ATOM     25  C   UNL     1      44.004  52.045  34.017  0.00  0.00    +0.000 A 
ATOM     26  C   UNL     1      43.274  51.370  34.986  0.00  0.00    +0.000 A 
ENDBRANCH  17  21
ENDBRANCH   1  17
TORSDOF 5
ENDMDL
MODEL 5
REMARK VINA RESULT:      -7.3      1.823      2.499
REMARK  Name = 11441300
REMARK  5 active torsions:
REMARK  status: ('A' for Active; 'I' for Inactive)
REMARK    1  A    between atoms: N_7  and  C_13
REMARK    2  A    between atoms: C_13  and  C_14
REMARK    3  A    between atoms: C_13  and  C_17
REMARK    4  A    between atoms: C_14  and  C_15
REMARK    5  A    between atoms: C_17  and  C_18
REMARK                            x       y       z     vdW  Elec       q    Type
REMARK                         _______ _______ _______ _____ _____    ______ ____
ROOT
ATOM      1  C   UNL     1      45.946  76.553  50.847  0.00  0.00    +0.000 C 
ENDROOT
BRANCH   1   2
ATOM      2  N   UNL     1      44.490  76.282  50.824  0.00  0.00    +0.000 NA
ATOM      3  H   UNL     1      44.129  76.392  49.877  0.00  0.00    +0.000 HD
ATOM      4  H   UNL     1      44.321  75.306  51.072  0.00  0.00    +0.000 HD
ENDBRANCH   1   2
BRANCH   1   5
ATOM      5  C   UNL     1      46.644  75.212  50.539  0.00  0.00    +0.000 C 
BRANCH   5  14
ATOM      6  O   UNL     1      45.378  74.017  52.209  0.00  0.00    +0.000 OA
ATOM      7  N   UNL     1      46.355  72.746  50.569  0.00  0.00    +0.000 N 
ATOM      8  N   UNL     1      47.848  70.441  50.259  0.00  0.00    +0.000 N 
ATOM      9  N   UNL     1      48.847  71.050  48.420  0.00  0.00    +0.000 NA
ATOM     10  N   UNL     1      49.390  69.855  48.844  0.00  0.00    +0.000 NA
ATOM     11  C   UNL     1      45.814  71.491  51.116  0.00  0.00    +0.000 C 
ATOM     12  C   UNL     1      47.062  72.614  49.283  0.00  0.00    +0.000 C 
ATOM     13  C   UNL     1      46.943  70.492  51.385  0.00  0.00    +0.000 C 
ATOM     14  C   UNL     1      46.055  73.961  51.185  0.00  0.00    +0.000 C 
ATOM     15  C   UNL     1      47.926  71.404  49.289  0.00  0.00    +0.000 A 
ATOM     16  C   UNL     1      48.782  69.509  49.958  0.00  0.00    +0.000 A 
ENDBRANCH   5  14
ENDBRANCH   1   5
BRANCH   1  17
ATOM     17  C   UNL     1      46.288  77.665  49.823  0.00  0.00    +0.000 C 
BRANCH  17  21
ATOM     18  F   UNL     1      47.057  79.343  52.024  0.00  0.00    +0.000 F 
ATOM     19  F   UNL     1      50.855  78.412  48.228  0.00  0.00    +0.000 F 
ATOM     20  F   UNL     1      51.441  79.933  50.426  0.00  0.00    +0.000 F 
ATOM     21  C   UNL     1      47.653  78.315  49.968  0.00  0.00    +0.000 A 
ATOM     22  C   UNL     1      47.977  79.108  51.079  0.00  0.00    +0.000 A 
ATOM     23  C   UNL     1      48.645  78.093  48.999  0.00  0.00    +0.000 A 
ATOM     24  C   UNL     1      49.918  78.644  49.157  0.00  0.00    +0.000 A 
ATOM     25  C   UNL     1      49.248  79.659  51.238  0.00  0.00    +0.000 A 
ATOM     26  C   UNL     1      50.215  79.418  50.272  0.00  0.00    +0.000 A 
ENDBRANCH  17  21
ENDBRANCH   1  17
TORSDOF 5
ENDMDL
MODEL 6
REMARK VINA RESULT:      -7.0     11.632     13.131
REMARK  Name = 11441300
REMARK  5 active torsions:
REMARK  status: ('A' for Active; 'I' for Inactive)
REMARK    1  A    between atoms: N_7  and  C_13
REMARK    2  A    between atoms: C_13  and  C_14
REMARK    3  A    between atoms: C_13  and  C_17
REMARK    4  A    between atoms: C_14  and  C_15
REMARK    5  A    between atoms: C_17  and  C_18
REMARK                            x       y       z     vdW  Elec       q    Type
REMARK                         _______ _______ _______ _____ _____    ______ ____
ROOT
ATOM      1  C   UNL     1      54.548  71.403  37.672  0.00  0.00    +0.000 C 
ENDROOT
BRANCH   1   2
ATOM      2  N   UNL     1      54.769  71.466  36.209  0.00  0.00    +0.000 NA
ATOM      3  H   UNL     1      54.243  70.727  35.744  0.00  0.00    +0.000 HD
ATOM      4  H   UNL     1      54.393  72.343  35.844  0.00  0.00    +0.000 HD
ENDBRANCH   1   2
BRANCH   1   5
ATOM      5  C   UNL     1      53.067  71.016  37.873  0.00  0.00    +0.000 C 
BRANCH   5  14
ATOM      6  O   UNL     1      52.314  73.187  37.141  0.00  0.00    +0.000 OA
ATOM      7  N   UNL     1      50.753  71.862  38.176  0.00  0.00    +0.000 N 
ATOM      8  N   UNL     1      48.790  71.993  40.116  0.00  0.00    +0.000 N 
ATOM      9  N   UNL     1      48.898  69.898  40.707  0.00  0.00    +0.000 NA
ATOM     10  N   UNL     1      48.040  70.555  41.563  0.00  0.00    +0.000 NA
ATOM     11  C   UNL     1      49.687  72.865  38.017  0.00  0.00    +0.000 C 
ATOM     12  C   UNL     1      50.316  70.568  38.727  0.00  0.00    +0.000 C 
ATOM     13  C   UNL     1      49.061  73.202  39.372  0.00  0.00    +0.000 C 
ATOM     14  C   UNL     1      52.031  72.118  37.679  0.00  0.00    +0.000 C 
ATOM     15  C   UNL     1      49.357  70.778  39.844  0.00  0.00    +0.000 A 
ATOM     16  C   UNL     1      47.995  71.818  41.197  0.00  0.00    +0.000 A 
ENDBRANCH   5  14
ENDBRANCH   1   5
BRANCH   1  17
ATOM     17  C   UNL     1      55.533  70.390  38.307  0.00  0.00    +0.000 C 
BRANCH  17  21
ATOM     18  F   UNL     1      54.462  70.743  40.949  0.00  0.00    +0.000 F 
ATOM     19  F   UNL     1      59.755  71.865  40.296  0.00  0.00    +0.000 F 
ATOM     20  F   UNL     1      58.590  72.082  42.763  0.00  0.00    +0.000 F 
ATOM     21  C   UNL     1      56.335  70.888  39.497  0.00  0.00    +0.000 A 
ATOM     22  C   UNL     1      55.761  71.019  40.770  0.00  0.00    +0.000 A 
ATOM     23  C   UNL     1      57.699  71.189  39.350  0.00  0.00    +0.000 A 
ATOM     24  C   UNL     1      58.453  71.594  40.453  0.00  0.00    +0.000 A 
ATOM     25  C   UNL     1      56.512  71.424  41.872  0.00  0.00    +0.000 A 
ATOM     26  C   UNL     1      57.861  71.707  41.705  0.00  0.00    +0.000 A 
ENDBRANCH  17  21
ENDBRANCH   1  17
TORSDOF 5
ENDMDL
MODEL 7
REMARK VINA RESULT:      -7.0      4.509      7.939
REMARK  Name = 11441300
REMARK  5 active torsions:
REMARK  status: ('A' for Active; 'I' for Inactive)
REMARK    1  A    between atoms: N_7  and  C_13
REMARK    2  A    between atoms: C_13  and  C_14
REMARK    3  A    between atoms: C_13  and  C_17
REMARK    4  A    between atoms: C_14  and  C_15
REMARK    5  A    between atoms: C_17  and  C_18
REMARK                            x       y       z     vdW  Elec       q    Type
REMARK                         _______ _______ _______ _____ _____    ______ ____
ROOT
ATOM      1  C   UNL     1      45.963  76.164  50.337  0.00  0.00    +0.000 C 
ENDROOT
BRANCH   1   2
ATOM      2  N   UNL     1      45.170  75.060  49.749  0.00  0.00    +0.000 NA
ATOM      3  H   UNL     1      45.148  74.266  50.388  0.00  0.00    +0.000 HD
ATOM      4  H   UNL     1      44.199  75.356  49.643  0.00  0.00    +0.000 HD
ENDBRANCH   1   2
BRANCH   1   5
ATOM      5  C   UNL     1      45.342  76.458  51.719  0.00  0.00    +0.000 C 
BRANCH   5  14
ATOM      6  O   UNL     1      46.542  78.206  52.870  0.00  0.00    +0.000 OA
ATOM      7  N   UNL     1      44.454  78.747  52.090  0.00  0.00    +0.000 N 
ATOM      8  N   UNL     1      42.130  80.003  52.901  0.00  0.00    +0.000 N 
ATOM      9  N   UNL     1      40.787  78.887  51.597  0.00  0.00    +0.000 NA
ATOM     10  N   UNL     1      40.032  79.682  52.433  0.00  0.00    +0.000 NA
ATOM     11  C   UNL     1      44.549  80.132  52.577  0.00  0.00    +0.000 C 
ATOM     12  C   UNL     1      43.255  78.447  51.288  0.00  0.00    +0.000 C 
ATOM     13  C   UNL     1      43.367  80.462  53.492  0.00  0.00    +0.000 C 
ATOM     14  C   UNL     1      45.523  77.869  52.272  0.00  0.00    +0.000 C 
ATOM     15  C   UNL     1      42.053  79.077  51.897  0.00  0.00    +0.000 A 
ATOM     16  C   UNL     1      40.858  80.340  53.218  0.00  0.00    +0.000 A 
ENDBRANCH   5  14
ENDBRANCH   1   5
BRANCH   1  17
ATOM     17  C   UNL     1      47.455  75.752  50.417  0.00  0.00    +0.000 C 
BRANCH  17  21
ATOM     18  F   UNL     1      47.638  77.015  47.843  0.00  0.00    +0.000 F 
ATOM     19  F   UNL     1      51.135  78.733  51.653  0.00  0.00    +0.000 F 
ATOM     20  F   UNL     1      51.127  79.878  49.167  0.00  0.00    +0.000 F 
ATOM     21  C   UNL     1      48.468  76.826  50.060  0.00  0.00    +0.000 A 
ATOM     22  C   UNL     1      48.493  77.422  48.790  0.00  0.00    +0.000 A 
ATOM     23  C   UNL     1      49.383  77.280  51.024  0.00  0.00    +0.000 A 
ATOM     24  C   UNL     1      50.278  78.306  50.717  0.00  0.00    +0.000 A 
ATOM     25  C   UNL     1      49.388  78.446  48.481  0.00  0.00    +0.000 A 
ATOM     26  C   UNL     1      50.276  78.885  49.454  0.00  0.00    +0.000 A 
ENDBRANCH  17  21
ENDBRANCH   1  17
TORSDOF 5
ENDMDL
MODEL 8
REMARK VINA RESULT:      -6.8     22.278     24.475
REMARK  Name = 11441300
REMARK  5 active torsions:
REMARK  status: ('A' for Active; 'I' for Inactive)
REMARK    1  A    between atoms: N_7  and  C_13
REMARK    2  A    between atoms: C_13  and  C_14
REMARK    3  A    between atoms: C_13  and  C_17
REMARK    4  A    between atoms: C_14  and  C_15
REMARK    5  A    between atoms: C_17  and  C_18
REMARK                            x       y       z     vdW  Elec       q    Type
REMARK                         _______ _______ _______ _____ _____    ______ ____
ROOT
ATOM      1  C   UNL     1      30.176  65.085  38.643  0.00  0.00    +0.000 C 
ENDROOT
BRANCH   1   2
ATOM      2  N   UNL     1      30.119  66.553  38.449  0.00  0.00    +0.000 NA
ATOM      3  H   UNL     1      29.864  66.768  37.486  0.00  0.00    +0.000 HD
ATOM      4  H   UNL     1      29.373  66.944  39.026  0.00  0.00    +0.000 HD
ENDBRANCH   1   2
BRANCH   1   5
ATOM      5  C   UNL     1      28.846  64.682  39.316  0.00  0.00    +0.000 C 
BRANCH   5  14
ATOM      6  O   UNL     1      27.810  66.574  40.396  0.00  0.00    +0.000 OA
ATOM      7  N   UNL     1      28.740  64.995  41.776  0.00  0.00    +0.000 N 
ATOM      8  N   UNL     1      30.366  64.797  44.002  0.00  0.00    +0.000 N 
ATOM      9  N   UNL     1      31.166  62.824  43.538  0.00  0.00    +0.000 NA
ATOM     10  N   UNL     1      31.827  63.320  44.642  0.00  0.00    +0.000 NA
ATOM     11  C   UNL     1      28.338  65.717  42.994  0.00  0.00    +0.000 C 
ATOM     12  C   UNL     1      29.348  63.673  42.004  0.00  0.00    +0.000 C 
ATOM     13  C   UNL     1      29.554  65.987  43.884  0.00  0.00    +0.000 C 
ATOM     14  C   UNL     1      28.404  65.505  40.522  0.00  0.00    +0.000 C 
ATOM     15  C   UNL     1      30.295  63.729  43.149  0.00  0.00    +0.000 A 
ATOM     16  C   UNL     1      31.338  64.514  44.900  0.00  0.00    +0.000 A 
ENDBRANCH   5  14
ENDBRANCH   1   5
BRANCH   1  17
ATOM     17  C   UNL     1      30.404  64.385  37.280  0.00  0.00    +0.000 C 
BRANCH  17  21
ATOM     18  F   UNL     1      27.734  63.993  36.296  0.00  0.00    +0.000 F 
ATOM     19  F   UNL     1      30.821  67.583  33.598  0.00  0.00    +0.000 F 
ATOM     20  F   UNL     1      28.230  67.141  32.836  0.00  0.00    +0.000 F 
ATOM     21  C   UNL     1      29.829  65.085  36.061  0.00  0.00    +0.000 A 
ATOM     22  C   UNL     1      28.508  64.869  35.642  0.00  0.00    +0.000 A 
ATOM     23  C   UNL     1      30.609  66.010  35.347  0.00  0.00    +0.000 A 
ATOM     24  C   UNL     1      30.066  66.697  34.260  0.00  0.00    +0.000 A 
ATOM     25  C   UNL     1      27.964  65.553  34.555  0.00  0.00    +0.000 A 
ATOM     26  C   UNL     1      28.751  66.470  33.871  0.00  0.00    +0.000 A 
ENDBRANCH  17  21
ENDBRANCH   1  17
TORSDOF 5
ENDMDL
MODEL 9
REMARK VINA RESULT:      -6.4      4.118      4.965
REMARK  Name = 11441300
REMARK  5 active torsions:
REMARK  status: ('A' for Active; 'I' for Inactive)
REMARK    1  A    between atoms: N_7  and  C_13
REMARK    2  A    between atoms: C_13  and  C_14
REMARK    3  A    between atoms: C_13  and  C_17
REMARK    4  A    between atoms: C_14  and  C_15
REMARK    5  A    between atoms: C_17  and  C_18
REMARK                            x       y       z     vdW  Elec       q    Type
REMARK                         _______ _______ _______ _____ _____    ______ ____
ROOT
ATOM      1  C   UNL     1      45.847  75.921  50.203  0.00  0.00    +0.000 C 
ENDROOT
BRANCH   1   2
ATOM      2  N   UNL     1      45.143  74.923  49.365  0.00  0.00    +0.000 NA
ATOM      3  H   UNL     1      45.118  74.022  49.840  0.00  0.00    +0.000 HD
ATOM      4  H   UNL     1      44.167  75.202  49.250  0.00  0.00    +0.000 HD
ENDBRANCH   1   2
BRANCH   1   5
ATOM      5  C   UNL     1      45.130  75.926  51.570  0.00  0.00    +0.000 C 
BRANCH   5  14
ATOM      6  O   UNL     1      42.808  75.446  51.130  0.00  0.00    +0.000 OA
ATOM      7  N   UNL     1      43.919  73.957  52.475  0.00  0.00    +0.000 N 
ATOM      8  N   UNL     1      43.605  72.581  54.851  0.00  0.00    +0.000 N 
ATOM      9  N   UNL     1      45.728  72.427  55.319  0.00  0.00    +0.000 NA
ATOM     10  N   UNL     1      45.003  71.941  56.387  0.00  0.00    +0.000 NA
ATOM     11  C   UNL     1      42.735  73.095  52.626  0.00  0.00    +0.000 C 
ATOM     12  C   UNL     1      45.157  73.428  53.072  0.00  0.00    +0.000 C 
ATOM     13  C   UNL     1      42.405  72.890  54.107  0.00  0.00    +0.000 C 
ATOM     14  C   UNL     1      43.850  75.103  51.682  0.00  0.00    +0.000 C 
ATOM     15  C   UNL     1      44.875  72.824  54.401  0.00  0.00    +0.000 A 
ATOM     16  C   UNL     1      43.727  72.051  56.090  0.00  0.00    +0.000 A 
ENDBRANCH   5  14
ENDBRANCH   1   5
BRANCH   1  17
ATOM     17  C   UNL     1      47.348  75.552  50.306  0.00  0.00    +0.000 C 
BRANCH  17  21
ATOM     18  F   UNL     1      47.473  76.892  47.768  0.00  0.00    +0.000 F 
ATOM     19  F   UNL     1      50.987  78.566  51.583  0.00  0.00    +0.000 F 
ATOM     20  F   UNL     1      50.924  79.782  49.132  0.00  0.00    +0.000 F 
ATOM     21  C   UNL     1      48.336  76.655  49.968  0.00  0.00    +0.000 A 
ATOM     22  C   UNL     1      48.333  77.288  48.716  0.00  0.00    +0.000 A 
ATOM     23  C   UNL     1      49.254  77.098  50.934  0.00  0.00    +0.000 A 
ATOM     24  C   UNL     1      50.126  78.150  50.645  0.00  0.00    +0.000 A 
ATOM     25  C   UNL     1      49.204  78.338  48.426  0.00  0.00    +0.000 A 
ATOM     26  C   UNL     1      50.096  78.766  49.400  0.00  0.00    +0.000 A 
ENDBRANCH  17  21
ENDBRANCH   1  17
TORSDOF 5
ENDMDL
