MODEL 1
REMARK VINA RESULT:      -8.0      0.000      0.000
REMARK  Name = 10269270
REMARK  7 active torsions:
REMARK  status: ('A' for Active; 'I' for Inactive)
REMARK    1  A    between atoms: N_8  and  C_14
REMARK    2  A    between atoms: C_13  and  C_14
REMARK    3  A    between atoms: C_13  and  C_15
REMARK    4  A    between atoms: C_14  and  C_17
REMARK    5  A    between atoms: C_16  and  C_18
REMARK    6  A    between atoms: C_17  and  C_19
REMARK    7  A    between atoms: C_18  and  C_20
REMARK                            x       y       z     vdW  Elec       q    Type
REMARK                         _______ _______ _______ _____ _____    ______ ____
ROOT
ATOM      1  C   UNL     1      47.208  73.724  49.076  0.00  0.00    +0.000 C 
ENDROOT
BRANCH   1  11
ATOM      2  O   UNL     1      46.038  72.695  50.879  0.00  0.00    +0.000 OA
ATOM      3  N   UNL     1      47.550  71.352  49.816  0.00  0.00    +0.000 N 
ATOM      4  N   UNL     1      49.478  69.632  50.785  0.00  0.00    +0.000 N 
ATOM      5  N   UNL     1      50.977  70.116  49.274  0.00  0.00    +0.000 NA
ATOM      6  N   UNL     1      51.564  69.336  50.243  0.00  0.00    +0.000 NA
ATOM      7  C   UNL     1      47.099  70.158  50.542  0.00  0.00    +0.000 C 
ATOM      8  C   UNL     1      48.200  69.629  51.464  0.00  0.00    +0.000 C 
ATOM      9  C   UNL     1      48.693  71.127  48.922  0.00  0.00    +0.000 C 
ATOM     10  C   UNL     1      49.724  70.310  49.619  0.00  0.00    +0.000 A 
ATOM     11  C   UNL     1      46.897  72.562  50.005  0.00  0.00    +0.000 C 
ATOM     12  C   UNL     1      50.663  69.069  51.167  0.00  0.00    +0.000 A 
BRANCH  12  13
ATOM     13  C   UNL     1      50.900  68.322  52.432  0.00  0.00    +0.000 C 
ATOM     14  C   UNL     1      51.948  68.994  53.300  0.00  0.00    +0.000 C 
ENDBRANCH  12  13
ENDBRANCH   1  11
BRANCH   1  15
ATOM     15  C   UNL     1      46.492  75.045  49.420  0.00  0.00    +0.000 C 
BRANCH  15  16
ATOM     16  N   UNL     1      45.042  74.785  49.294  0.00  0.00    +0.000 NA
ATOM     17  H   UNL     1      44.791  73.969  49.854  0.00  0.00    +0.000 HD
ATOM     18  H   UNL     1      44.520  75.564  49.697  0.00  0.00    +0.000 HD
ENDBRANCH  15  16
BRANCH  15  19
ATOM     19  C   UNL     1      46.915  76.222  48.506  0.00  0.00    +0.000 C 
BRANCH  19  22
ATOM     20  F   UNL     1      45.389  77.863  50.300  0.00  0.00    +0.000 F 
ATOM     21  F   UNL     1      50.563  79.337  49.455  0.00  0.00    +0.000 F 
ATOM     22  C   UNL     1      47.449  77.458  49.201  0.00  0.00    +0.000 A 
ATOM     23  C   UNL     1      46.663  78.214  50.076  0.00  0.00    +0.000 A 
ATOM     24  C   UNL     1      48.781  77.858  48.998  0.00  0.00    +0.000 A 
ATOM     25  C   UNL     1      49.289  78.974  49.660  0.00  0.00    +0.000 A 
ATOM     26  C   UNL     1      47.174  79.333  50.738  0.00  0.00    +0.000 A 
ATOM     27  C   UNL     1      48.500  79.716  50.529  0.00  0.00    +0.000 A 
ENDBRANCH  19  22
ENDBRANCH  15  19
ENDBRANCH   1  15
TORSDOF 6
ENDMDL
MODEL 2
REMARK VINA RESULT:      -7.9     22.071     24.029
REMARK  Name = 10269270
REMARK  7 active torsions:
REMARK  status: ('A' for Active; 'I' for Inactive)
REMARK    1  A    between atoms: N_8  and  C_14
REMARK    2  A    between atoms: C_13  and  C_14
REMARK    3  A    between atoms: C_13  and  C_15
REMARK    4  A    between atoms: C_14  and  C_17
REMARK    5  A    between atoms: C_16  and  C_18
REMARK    6  A    between atoms: C_17  and  C_19
REMARK    7  A    between atoms: C_18  and  C_20
REMARK                            x       y       z     vdW  Elec       q    Type
REMARK                         _______ _______ _______ _____ _____    ______ ____
ROOT
ATOM      1  C   UNL     1      28.533  63.966  37.869  0.00  0.00    +0.000 C 
ENDROOT
BRANCH   1  11
ATOM      2  O   UNL     1      30.907  63.761  37.805  0.00  0.00    +0.000 OA
ATOM      3  N   UNL     1      30.075  64.796  39.664  0.00  0.00    +0.000 N 
ATOM      4  N   UNL     1      30.654  64.495  42.345  0.00  0.00    +0.000 N 
ATOM      5  N   UNL     1      28.596  64.716  43.036  0.00  0.00    +0.000 NA
ATOM      6  N   UNL     1      29.374  64.311  44.095  0.00  0.00    +0.000 NA
ATOM      7  C   UNL     1      31.413  65.189  40.124  0.00  0.00    +0.000 C 
ATOM      8  C   UNL     1      31.775  64.479  41.430  0.00  0.00    +0.000 C 
ATOM      9  C   UNL     1      28.986  65.151  40.582  0.00  0.00    +0.000 C 
ATOM     10  C   UNL     1      29.370  64.802  41.978  0.00  0.00    +0.000 A 
ATOM     11  C   UNL     1      29.928  64.147  38.446  0.00  0.00    +0.000 C 
ATOM     12  C   UNL     1      30.611  64.153  43.668  0.00  0.00    +0.000 A 
BRANCH  12  13
ATOM     13  C   UNL     1      31.757  63.647  44.470  0.00  0.00    +0.000 C 
ATOM     14  C   UNL     1      32.284  64.698  45.431  0.00  0.00    +0.000 C 
ENDBRANCH  12  13
ENDBRANCH   1  11
BRANCH   1  15
ATOM     15  C   UNL     1      28.462  63.934  36.330  0.00  0.00    +0.000 C 
BRANCH  15  16
ATOM     16  N   UNL     1      29.143  62.693  35.901  0.00  0.00    +0.000 NA
ATOM     17  H   UNL     1      29.805  62.401  36.621  0.00  0.00    +0.000 HD
ATOM     18  H   UNL     1      28.461  61.936  35.834  0.00  0.00    +0.000 HD
ENDBRANCH  15  16
BRANCH  15  19
ATOM     19  C   UNL     1      29.116  65.171  35.665  0.00  0.00    +0.000 C 
BRANCH  19  22
ATOM     20  F   UNL     1      29.664  67.209  37.611  0.00  0.00    +0.000 F 
ATOM     21  F   UNL     1      25.649  68.231  34.076  0.00  0.00    +0.000 F 
ATOM     22  C   UNL     1      28.356  66.478  35.775  0.00  0.00    +0.000 A 
ATOM     23  C   UNL     1      28.675  67.442  36.736  0.00  0.00    +0.000 A 
ATOM     24  C   UNL     1      27.316  66.763  34.874  0.00  0.00    +0.000 A 
ATOM     25  C   UNL     1      26.635  67.977  34.947  0.00  0.00    +0.000 A 
ATOM     26  C   UNL     1      27.991  68.657  36.808  0.00  0.00    +0.000 A 
ATOM     27  C   UNL     1      26.962  68.928  35.904  0.00  0.00    +0.000 A 
ENDBRANCH  19  22
ENDBRANCH  15  19
ENDBRANCH   1  15
TORSDOF 6
ENDMDL
MODEL 3
REMARK VINA RESULT:      -7.5      1.678      2.035
REMARK  Name = 10269270
REMARK  7 active torsions:
REMARK  status: ('A' for Active; 'I' for Inactive)
REMARK    1  A    between atoms: N_8  and  C_14
REMARK    2  A    between atoms: C_13  and  C_14
REMARK    3  A    between atoms: C_13  and  C_15
REMARK    4  A    between atoms: C_14  and  C_17
REMARK    5  A    between atoms: C_16  and  C_18
REMARK    6  A    between atoms: C_17  and  C_19
REMARK    7  A    between atoms: C_18  and  C_20
REMARK                            x       y       z     vdW  Elec       q    Type
REMARK                         _______ _______ _______ _____ _____    ______ ____
ROOT
ATOM      1  C   UNL     1      46.386  74.808  49.858  0.00  0.00    +0.000 C 
ENDROOT
BRANCH   1  11
ATOM      2  O   UNL     1      44.987  73.477  51.256  0.00  0.00    +0.000 OA
ATOM      3  N   UNL     1      46.601  72.323  50.123  0.00  0.00    +0.000 N 
ATOM      4  N   UNL     1      48.370  70.366  50.935  0.00  0.00    +0.000 N 
ATOM      5  N   UNL     1      50.052  71.091  49.748  0.00  0.00    +0.000 NA
ATOM      6  N   UNL     1      50.504  70.107  50.596  0.00  0.00    +0.000 NA
ATOM      7  C   UNL     1      46.048  71.024  50.526  0.00  0.00    +0.000 C 
ATOM      8  C   UNL     1      47.018  70.275  51.442  0.00  0.00    +0.000 C 
ATOM      9  C   UNL     1      47.844  72.242  49.345  0.00  0.00    +0.000 C 
ATOM     10  C   UNL     1      48.769  71.259  49.974  0.00  0.00    +0.000 A 
ATOM     11  C   UNL     1      45.947  73.492  50.481  0.00  0.00    +0.000 C 
ATOM     12  C   UNL     1      49.491  69.691  51.331  0.00  0.00    +0.000 A 
BRANCH  12  13
ATOM     13  C   UNL     1      49.559  68.693  52.431  0.00  0.00    +0.000 C 
ATOM     14  C   UNL     1      49.989  69.323  53.744  0.00  0.00    +0.000 C 
ENDBRANCH  12  13
ENDBRANCH   1  11
BRANCH   1  15
ATOM     15  C   UNL     1      47.161  75.750  50.798  0.00  0.00    +0.000 C 
BRANCH  15  16
ATOM     16  N   UNL     1      46.605  75.546  52.153  0.00  0.00    +0.000 NA
ATOM     17  H   UNL     1      45.686  75.984  52.215  0.00  0.00    +0.000 HD
ATOM     18  H   UNL     1      46.444  74.549  52.309  0.00  0.00    +0.000 HD
ENDBRANCH  15  16
BRANCH  15  19
ATOM     19  C   UNL     1      47.060  77.240  50.387  0.00  0.00    +0.000 C 
BRANCH  19  22
ATOM     20  F   UNL     1      48.117  77.481  47.729  0.00  0.00    +0.000 F 
ATOM     21  F   UNL     1      51.024  79.772  51.724  0.00  0.00    +0.000 F 
ATOM     22  C   UNL     1      48.361  77.936  50.042  0.00  0.00    +0.000 A 
ATOM     23  C   UNL     1      48.822  78.034  48.725  0.00  0.00    +0.000 A 
ATOM     24  C   UNL     1      49.128  78.533  51.056  0.00  0.00    +0.000 A 
ATOM     25  C   UNL     1      50.309  79.205  50.742  0.00  0.00    +0.000 A 
ATOM     26  C   UNL     1      50.006  78.706  48.413  0.00  0.00    +0.000 A 
ATOM     27  C   UNL     1      50.756  79.299  49.431  0.00  0.00    +0.000 A 
ENDBRANCH  19  22
ENDBRANCH  15  19
ENDBRANCH   1  15
TORSDOF 6
ENDMDL
MODEL 4
REMARK VINA RESULT:      -6.8      4.481      7.313
REMARK  Name = 10269270
REMARK  7 active torsions:
REMARK  status: ('A' for Active; 'I' for Inactive)
REMARK    1  A    between atoms: N_8  and  C_14
REMARK    2  A    between atoms: C_13  and  C_14
REMARK    3  A    between atoms: C_13  and  C_15
REMARK    4  A    between atoms: C_14  and  C_17
REMARK    5  A    between atoms: C_16  and  C_18
REMARK    6  A    between atoms: C_17  and  C_19
REMARK    7  A    between atoms: C_18  and  C_20
REMARK                            x       y       z     vdW  Elec       q    Type
REMARK                         _______ _______ _______ _____ _____    ______ ____
ROOT
ATOM      1  C   UNL     1      43.945  77.634  52.895  0.00  0.00    +0.000 C 
ENDROOT
BRANCH   1  11
ATOM      2  O   UNL     1      43.887  79.600  51.548  0.00  0.00    +0.000 OA
ATOM      3  N   UNL     1      45.979  78.857  52.086  0.00  0.00    +0.000 N 
ATOM      4  N   UNL     1      48.256  78.524  50.563  0.00  0.00    +0.000 N 
ATOM      5  N   UNL     1      48.891  76.672  51.528  0.00  0.00    +0.000 NA
ATOM      6  N   UNL     1      49.683  76.887  50.424  0.00  0.00    +0.000 NA
ATOM      7  C   UNL     1      46.619  80.060  51.538  0.00  0.00    +0.000 C 
ATOM      8  C   UNL     1      47.476  79.718  50.318  0.00  0.00    +0.000 C 
ATOM      9  C   UNL     1      46.916  77.838  52.577  0.00  0.00    +0.000 C 
ATOM     10  C   UNL     1      48.017  77.651  51.592  0.00  0.00    +0.000 A 
ATOM     11  C   UNL     1      44.596  78.761  52.110  0.00  0.00    +0.000 C 
ATOM     12  C   UNL     1      49.279  77.991  49.828  0.00  0.00    +0.000 A 
BRANCH  12  13
ATOM     13  C   UNL     1      49.810  78.544  48.554  0.00  0.00    +0.000 C 
ATOM     14  C   UNL     1      51.049  79.394  48.777  0.00  0.00    +0.000 C 
ENDBRANCH  12  13
ENDBRANCH   1  11
BRANCH   1  15
ATOM     15  C   UNL     1      43.523  76.413  52.056  0.00  0.00    +0.000 C 
BRANCH  15  16
ATOM     16  N   UNL     1      42.111  76.133  52.396  0.00  0.00    +0.000 NA
ATOM     17  H   UNL     1      41.836  75.232  52.003  0.00  0.00    +0.000 HD
ATOM     18  H   UNL     1      42.019  76.030  53.408  0.00  0.00    +0.000 HD
ENDBRANCH  15  16
BRANCH  15  19
ATOM     19  C   UNL     1      44.402  75.164  52.313  0.00  0.00    +0.000 C 
BRANCH  19  22
ATOM     20  F   UNL     1      45.564  72.549  52.087  0.00  0.00    +0.000 F 
ATOM     21  F   UNL     1      46.636  76.049  48.055  0.00  0.00    +0.000 F 
ATOM     22  C   UNL     1      45.293  74.717  51.171  0.00  0.00    +0.000 A 
ATOM     23  C   UNL     1      45.822  73.425  51.106  0.00  0.00    +0.000 A 
ATOM     24  C   UNL     1      45.583  75.603  50.120  0.00  0.00    +0.000 A 
ATOM     25  C   UNL     1      46.374  75.189  49.049  0.00  0.00    +0.000 A 
ATOM     26  C   UNL     1      46.614  73.012  50.033  0.00  0.00    +0.000 A 
ATOM     27  C   UNL     1      46.892  73.903  48.993  0.00  0.00    +0.000 A 
ENDBRANCH  19  22
ENDBRANCH  15  19
ENDBRANCH   1  15
TORSDOF 6
ENDMDL
MODEL 5
REMARK VINA RESULT:      -6.5      5.105      7.860
REMARK  Name = 10269270
REMARK  7 active torsions:
REMARK  status: ('A' for Active; 'I' for Inactive)
REMARK    1  A    between atoms: N_8  and  C_14
REMARK    2  A    between atoms: C_13  and  C_14
REMARK    3  A    between atoms: C_13  and  C_15
REMARK    4  A    between atoms: C_14  and  C_17
REMARK    5  A    between atoms: C_16  and  C_18
REMARK    6  A    between atoms: C_17  and  C_19
REMARK    7  A    between atoms: C_18  and  C_20
REMARK                            x       y       z     vdW  Elec       q    Type
REMARK                         _______ _______ _______ _____ _____    ______ ____
ROOT
ATOM      1  C   UNL     1      43.639  78.200  52.373  0.00  0.00    +0.000 C 
ENDROOT
BRANCH   1  11
ATOM      2  O   UNL     1      44.086  80.420  51.629  0.00  0.00    +0.000 OA
ATOM      3  N   UNL     1      45.922  79.235  52.292  0.00  0.00    +0.000 N 
ATOM      4  N   UNL     1      48.415  78.921  51.150  0.00  0.00    +0.000 N 
ATOM      5  N   UNL     1      48.622  76.809  51.663  0.00  0.00    +0.000 NA
ATOM      6  N   UNL     1      49.645  77.158  50.813  0.00  0.00    +0.000 NA
ATOM      7  C   UNL     1      46.794  80.415  52.214  0.00  0.00    +0.000 C 
ATOM      8  C   UNL     1      47.843  80.249  51.113  0.00  0.00    +0.000 C 
ATOM      9  C   UNL     1      46.615  77.987  52.638  0.00  0.00    +0.000 C 
ATOM     10  C   UNL     1      47.869  77.871  51.843  0.00  0.00    +0.000 A 
ATOM     11  C   UNL     1      44.562  79.365  52.052  0.00  0.00    +0.000 C 
ATOM     12  C   UNL     1      49.502  78.426  50.484  0.00  0.00    +0.000 A 
BRANCH  12  13
ATOM     13  C   UNL     1      50.346  79.183  49.521  0.00  0.00    +0.000 C 
ATOM     14  C   UNL     1      49.797  79.111  48.107  0.00  0.00    +0.000 C 
ENDBRANCH  12  13
ENDBRANCH   1  11
BRANCH   1  15
ATOM     15  C   UNL     1      43.115  77.425  51.149  0.00  0.00    +0.000 C 
BRANCH  15  16
ATOM     16  N   UNL     1      42.014  78.232  50.578  0.00  0.00    +0.000 NA
ATOM     17  H   UNL     1      41.960  79.128  51.063  0.00  0.00    +0.000 HD
ATOM     18  H   UNL     1      42.227  78.459  49.606  0.00  0.00    +0.000 HD
ENDBRANCH  15  16
BRANCH  15  19
ATOM     19  C   UNL     1      42.620  75.999  51.498  0.00  0.00    +0.000 C 
BRANCH  19  22
ATOM     20  F   UNL     1      43.515  74.818  53.956  0.00  0.00    +0.000 F 
ATOM     21  F   UNL     1      45.795  72.942  49.380  0.00  0.00    +0.000 F 
ATOM     22  C   UNL     1      43.681  74.921  51.595  0.00  0.00    +0.000 A 
ATOM     23  C   UNL     1      44.070  74.372  52.821  0.00  0.00    +0.000 A 
ATOM     24  C   UNL     1      44.283  74.422  50.427  0.00  0.00    +0.000 A 
ATOM     25  C   UNL     1      45.235  73.407  50.506  0.00  0.00    +0.000 A 
ATOM     26  C   UNL     1      45.024  73.356  52.897  0.00  0.00    +0.000 A 
ATOM     27  C   UNL     1      45.612  72.867  51.728  0.00  0.00    +0.000 A 
ENDBRANCH  19  22
ENDBRANCH  15  19
ENDBRANCH   1  15
TORSDOF 6
ENDMDL
MODEL 6
REMARK VINA RESULT:      -6.4     17.799     19.047
REMARK  Name = 10269270
REMARK  7 active torsions:
REMARK  status: ('A' for Active; 'I' for Inactive)
REMARK    1  A    between atoms: N_8  and  C_14
REMARK    2  A    between atoms: C_13  and  C_14
REMARK    3  A    between atoms: C_13  and  C_15
REMARK    4  A    between atoms: C_14  and  C_17
REMARK    5  A    between atoms: C_16  and  C_18
REMARK    6  A    between atoms: C_17  and  C_19
REMARK    7  A    between atoms: C_18  and  C_20
REMARK                            x       y       z     vdW  Elec       q    Type
REMARK                         _______ _______ _______ _____ _____    ______ ____
ROOT
ATOM      1  C   UNL     1      44.814  54.067  54.705  0.00  0.00    +0.000 C 
ENDROOT
BRANCH   1  11
ATOM      2  O   UNL     1      44.734  53.797  52.338  0.00  0.00    +0.000 OA
ATOM      3  N   UNL     1      46.260  55.323  53.086  0.00  0.00    +0.000 N 
ATOM      4  N   UNL     1      48.901  55.759  52.413  0.00  0.00    +0.000 N 
ATOM      5  N   UNL     1      49.568  56.208  54.442  0.00  0.00    +0.000 NA
ATOM      6  N   UNL     1      50.673  56.093  53.631  0.00  0.00    +0.000 NA
ATOM      7  C   UNL     1      46.552  55.797  51.727  0.00  0.00    +0.000 C 
ATOM      8  C   UNL     1      47.991  55.465  51.327  0.00  0.00    +0.000 C 
ATOM      9  C   UNL     1      47.079  55.943  54.136  0.00  0.00    +0.000 C 
ATOM     10  C   UNL     1      48.504  55.982  53.706  0.00  0.00    +0.000 A 
ATOM     11  C   UNL     1      45.275  54.368  53.287  0.00  0.00    +0.000 C 
ATOM     12  C   UNL     1      50.268  55.795  52.413  0.00  0.00    +0.000 A 
BRANCH  12  13
ATOM     13  C   UNL     1      51.142  55.504  51.245  0.00  0.00    +0.000 C 
ATOM     14  C   UNL     1      52.022  56.688  50.886  0.00  0.00    +0.000 C 
ENDBRANCH  12  13
ENDBRANCH   1  11
BRANCH   1  15
ATOM     15  C   UNL     1      43.451  54.674  55.091  0.00  0.00    +0.000 C 
BRANCH  15  16
ATOM     16  N   UNL     1      42.451  54.084  54.175  0.00  0.00    +0.000 NA
ATOM     17  H   UNL     1      41.526  54.457  54.393  0.00  0.00    +0.000 HD
ATOM     18  H   UNL     1      42.647  54.382  53.219  0.00  0.00    +0.000 HD
ENDBRANCH  15  16
BRANCH  15  19
ATOM     19  C   UNL     1      43.427  56.220  55.001  0.00  0.00    +0.000 C 
BRANCH  19  22
ATOM     20  F   UNL     1      44.153  58.824  55.968  0.00  0.00    +0.000 F 
ATOM     21  F   UNL     1      39.852  56.461  58.329  0.00  0.00    +0.000 F 
ATOM     22  C   UNL     1      42.710  56.950  56.119  0.00  0.00    +0.000 A 
ATOM     23  C   UNL     1      43.100  58.225  56.541  0.00  0.00    +0.000 A 
ATOM     24  C   UNL     1      41.598  56.360  56.743  0.00  0.00    +0.000 A 
ATOM     25  C   UNL     1      40.912  57.040  57.748  0.00  0.00    +0.000 A 
ATOM     26  C   UNL     1      42.413  58.904  57.549  0.00  0.00    +0.000 A 
ATOM     27  C   UNL     1      41.307  58.306  58.158  0.00  0.00    +0.000 A 
ENDBRANCH  19  22
ENDBRANCH  15  19
ENDBRANCH   1  15
TORSDOF 6
ENDMDL
MODEL 7
REMARK VINA RESULT:      -6.4     11.032     12.197
REMARK  Name = 10269270
REMARK  7 active torsions:
REMARK  status: ('A' for Active; 'I' for Inactive)
REMARK    1  A    between atoms: N_8  and  C_14
REMARK    2  A    between atoms: C_13  and  C_14
REMARK    3  A    between atoms: C_13  and  C_15
REMARK    4  A    between atoms: C_14  and  C_17
REMARK    5  A    between atoms: C_16  and  C_18
REMARK    6  A    between atoms: C_17  and  C_19
REMARK    7  A    between atoms: C_18  and  C_20
REMARK                            x       y       z     vdW  Elec       q    Type
REMARK                         _______ _______ _______ _____ _____    ______ ____
ROOT
ATOM      1  C   UNL     1      46.722  68.760  40.417  0.00  0.00    +0.000 C 
ENDROOT
BRANCH   1  11
ATOM      2  O   UNL     1      45.352  67.423  41.838  0.00  0.00    +0.000 OA
ATOM      3  N   UNL     1      45.599  66.631  39.710  0.00  0.00    +0.000 N 
ATOM      4  N   UNL     1      46.140  64.104  38.742  0.00  0.00    +0.000 N 
ATOM      5  N   UNL     1      47.459  64.766  37.135  0.00  0.00    +0.000 NA
ATOM      6  N   UNL     1      47.533  63.396  37.229  0.00  0.00    +0.000 NA
ATOM      7  C   UNL     1      44.583  65.590  39.909  0.00  0.00    +0.000 C 
ATOM      8  C   UNL     1      45.207  64.195  39.846  0.00  0.00    +0.000 C 
ATOM      9  C   UNL     1      46.265  66.592  38.401  0.00  0.00    +0.000 C 
ATOM     10  C   UNL     1      46.635  65.189  38.067  0.00  0.00    +0.000 A 
ATOM     11  C   UNL     1      45.855  67.548  40.719  0.00  0.00    +0.000 C 
ATOM     12  C   UNL     1      46.756  63.002  38.218  0.00  0.00    +0.000 A 
BRANCH  12  13
ATOM     13  C   UNL     1      46.606  61.607  38.712  0.00  0.00    +0.000 C 
ATOM     14  C   UNL     1      47.595  61.288  39.819  0.00  0.00    +0.000 C 
ENDBRANCH  12  13
ENDBRANCH   1  11
BRANCH   1  15
ATOM     15  C   UNL     1      47.003  69.678  41.622  0.00  0.00    +0.000 C 
BRANCH  15  16
ATOM     16  N   UNL     1      45.896  70.658  41.674  0.00  0.00    +0.000 NA
ATOM     17  H   UNL     1      46.202  71.541  41.265  0.00  0.00    +0.000 HD
ATOM     18  H   UNL     1      45.128  70.335  41.084  0.00  0.00    +0.000 HD
ENDBRANCH  15  16
BRANCH  15  19
ATOM     19  C   UNL     1      48.368  70.404  41.528  0.00  0.00    +0.000 C 
BRANCH  19  22
ATOM     20  F   UNL     1      48.567  70.651  38.675  0.00  0.00    +0.000 F 
ATOM     21  F   UNL     1      48.150  75.288  41.499  0.00  0.00    +0.000 F 
ATOM     22  C   UNL     1      48.383  71.722  40.781  0.00  0.00    +0.000 A 
ATOM     23  C   UNL     1      48.469  71.782  39.386  0.00  0.00    +0.000 A 
ATOM     24  C   UNL     1      48.277  72.931  41.488  0.00  0.00    +0.000 A 
ATOM     25  C   UNL     1      48.255  74.146  40.805  0.00  0.00    +0.000 A 
ATOM     26  C   UNL     1      48.448  73.001  38.704  0.00  0.00    +0.000 A 
ATOM     27  C   UNL     1      48.339  74.194  39.421  0.00  0.00    +0.000 A 
ENDBRANCH  19  22
ENDBRANCH  15  19
ENDBRANCH   1  15
TORSDOF 6
ENDMDL
MODEL 8
REMARK VINA RESULT:      -6.1      6.052      8.535
REMARK  Name = 10269270
REMARK  7 active torsions:
REMARK  status: ('A' for Active; 'I' for Inactive)
REMARK    1  A    between atoms: N_8  and  C_14
REMARK    2  A    between atoms: C_13  and  C_14
REMARK    3  A    between atoms: C_13  and  C_15
REMARK    4  A    between atoms: C_14  and  C_17
REMARK    5  A    between atoms: C_16  and  C_18
REMARK    6  A    between atoms: C_17  and  C_19
REMARK    7  A    between atoms: C_18  and  C_20
REMARK                            x       y       z     vdW  Elec       q    Type
REMARK                         _______ _______ _______ _____ _____    ______ ____
ROOT
ATOM      1  C   UNL     1      43.060  78.142  52.624  0.00  0.00    +0.000 C 
ENDROOT
BRANCH   1  11
ATOM      2  O   UNL     1      43.839  80.393  52.523  0.00  0.00    +0.000 OA
ATOM      3  N   UNL     1      45.443  78.800  52.199  0.00  0.00    +0.000 N 
ATOM      4  N   UNL     1      47.460  78.581  50.328  0.00  0.00    +0.000 N 
ATOM      5  N   UNL     1      47.272  76.423  50.060  0.00  0.00    +0.000 NA
ATOM      6  N   UNL     1      48.127  76.913  49.100  0.00  0.00    +0.000 NA
ATOM      7  C   UNL     1      46.528  79.789  52.242  0.00  0.00    +0.000 C 
ATOM      8  C   UNL     1      47.227  79.896  50.885  0.00  0.00    +0.000 C 
ATOM      9  C   UNL     1      45.880  77.428  51.908  0.00  0.00    +0.000 C 
ATOM     10  C   UNL     1      46.855  77.438  50.782  0.00  0.00    +0.000 A 
ATOM     11  C   UNL     1      44.135  79.200  52.428  0.00  0.00    +0.000 C 
ATOM     12  C   UNL     1      48.216  78.219  49.248  0.00  0.00    +0.000 A 
BRANCH  12  13
ATOM     13  C   UNL     1      48.973  79.151  48.368  0.00  0.00    +0.000 C 
ATOM     14  C   UNL     1      50.466  79.100  48.640  0.00  0.00    +0.000 C 
ENDBRANCH  12  13
ENDBRANCH   1  11
BRANCH   1  15
ATOM     15  C   UNL     1      42.278  77.762  51.352  0.00  0.00    +0.000 C 
BRANCH  15  16
ATOM     16  N   UNL     1      41.634  79.002  50.866  0.00  0.00    +0.000 NA
ATOM     17  H   UNL     1      42.147  79.812  51.214  0.00  0.00    +0.000 HD
ATOM     18  H   UNL     1      41.708  79.047  49.848  0.00  0.00    +0.000 HD
ENDBRANCH  15  16
BRANCH  15  19
ATOM     19  C   UNL     1      41.220  76.658  51.596  0.00  0.00    +0.000 C 
BRANCH  19  22
ATOM     20  F   UNL     1      43.229  74.611  51.693  0.00  0.00    +0.000 F 
ATOM     21  F   UNL     1      39.330  74.022  47.937  0.00  0.00    +0.000 F 
ATOM     22  C   UNL     1      41.268  75.459  50.670  0.00  0.00    +0.000 A 
ATOM     23  C   UNL     1      42.265  74.485  50.771  0.00  0.00    +0.000 A 
ATOM     24  C   UNL     1      40.273  75.287  49.693  0.00  0.00    +0.000 A 
ATOM     25  C   UNL     1      40.291  74.170  48.860  0.00  0.00    +0.000 A 
ATOM     26  C   UNL     1      42.282  73.367  49.934  0.00  0.00    +0.000 A 
ATOM     27  C   UNL     1      41.284  73.207  48.970  0.00  0.00    +0.000 A 
ENDBRANCH  19  22
ENDBRANCH  15  19
ENDBRANCH   1  15
TORSDOF 6
ENDMDL
MODEL 9
REMARK VINA RESULT:      -5.9      3.748      8.382
REMARK  Name = 10269270
REMARK  7 active torsions:
REMARK  status: ('A' for Active; 'I' for Inactive)
REMARK    1  A    between atoms: N_8  and  C_14
REMARK    2  A    between atoms: C_13  and  C_14
REMARK    3  A    between atoms: C_13  and  C_15
REMARK    4  A    between atoms: C_14  and  C_17
REMARK    5  A    between atoms: C_16  and  C_18
REMARK    6  A    between atoms: C_17  and  C_19
REMARK    7  A    between atoms: C_18  and  C_20
REMARK                            x       y       z     vdW  Elec       q    Type
REMARK                         _______ _______ _______ _____ _____    ______ ____
ROOT
ATOM      1  C   UNL     1      47.128  73.326  48.931  0.00  0.00    +0.000 C 
ENDROOT
BRANCH   1  11
ATOM      2  O   UNL     1      45.259  72.948  50.361  0.00  0.00    +0.000 OA
ATOM      3  N   UNL     1      46.485  74.813  50.846  0.00  0.00    +0.000 N 
ATOM      4  N   UNL     1      45.733  77.403  51.433  0.00  0.00    +0.000 N 
ATOM      5  N   UNL     1      47.353  78.354  50.322  0.00  0.00    +0.000 NA
ATOM      6  N   UNL     1      46.459  79.324  50.715  0.00  0.00    +0.000 NA
ATOM      7  C   UNL     1      45.756  75.047  52.099  0.00  0.00    +0.000 C 
ATOM      8  C   UNL     1      44.947  76.344  52.029  0.00  0.00    +0.000 C 
ATOM      9  C   UNL     1      47.480  75.843  50.518  0.00  0.00    +0.000 C 
ATOM     10  C   UNL     1      46.896  77.195  50.738  0.00  0.00    +0.000 A 
ATOM     11  C   UNL     1      46.207  73.686  50.086  0.00  0.00    +0.000 C 
ATOM     12  C   UNL     1      45.469  78.742  51.361  0.00  0.00    +0.000 A 
BRANCH  12  13
ATOM     13  C   UNL     1      44.250  79.415  51.886  0.00  0.00    +0.000 C 
ATOM     14  C   UNL     1      43.551  80.235  50.817  0.00  0.00    +0.000 C 
ENDBRANCH  12  13
ENDBRANCH   1  11
BRANCH   1  15
ATOM     15  C   UNL     1      47.329  71.816  48.702  0.00  0.00    +0.000 C 
BRANCH  15  16
ATOM     16  N   UNL     1      46.026  71.280  48.252  0.00  0.00    +0.000 NA
ATOM     17  H   UNL     1      46.180  70.524  47.584  0.00  0.00    +0.000 HD
ATOM     18  H   UNL     1      45.543  70.852  49.043  0.00  0.00    +0.000 HD
ENDBRANCH  15  16
BRANCH  15  19
ATOM     19  C   UNL     1      47.818  71.068  49.967  0.00  0.00    +0.000 C 
BRANCH  19  22
ATOM     20  F   UNL     1      47.881  68.578  48.540  0.00  0.00    +0.000 F 
ATOM     21  F   UNL     1      52.580  70.256  50.722  0.00  0.00    +0.000 F 
ATOM     22  C   UNL     1      49.052  70.203  49.806  0.00  0.00    +0.000 A 
ATOM     23  C   UNL     1      49.027  69.004  49.088  0.00  0.00    +0.000 A 
ATOM     24  C   UNL     1      50.275  70.616  50.361  0.00  0.00    +0.000 A 
ATOM     25  C   UNL     1      51.422  69.843  50.188  0.00  0.00    +0.000 A 
ATOM     26  C   UNL     1      50.177  68.230  48.917  0.00  0.00    +0.000 A 
ATOM     27  C   UNL     1      51.387  68.654  49.471  0.00  0.00    +0.000 A 
ENDBRANCH  19  22
ENDBRANCH  15  19
ENDBRANCH   1  15
TORSDOF 6
ENDMDL
