MODEL 1
REMARK VINA RESULT:      -8.1      0.000      0.000
REMARK  Name = 9922961
REMARK  6 active torsions:
REMARK  status: ('A' for Active; 'I' for Inactive)
REMARK    1  A    between atoms: N_6  and  C_13
REMARK    2  A    between atoms: C_12  and  C_13
REMARK    3  A    between atoms: C_12  and  C_14
REMARK    4  A    between atoms: C_13  and  C_15
REMARK    5  A    between atoms: C_15  and  C_17
REMARK    6  A    between atoms: C_16  and  C_18
REMARK                            x       y       z     vdW  Elec       q    Type
REMARK                         _______ _______ _______ _____ _____    ______ ____
ROOT
ATOM      1  C   UNL     1      47.151  73.654  49.146  0.00  0.00    +0.000 C 
ENDROOT
BRANCH   1  11
ATOM      2  O   UNL     1      46.056  72.535  50.969  0.00  0.00    +0.000 OA
ATOM      3  N   UNL     1      47.722  71.338  49.954  0.00  0.00    +0.000 N 
ATOM      4  N   UNL     1      49.814  69.810  50.918  0.00  0.00    +0.000 N 
ATOM      5  N   UNL     1      51.220  70.344  49.336  0.00  0.00    +0.000 NA
ATOM      6  N   UNL     1      51.903  69.678  50.329  0.00  0.00    +0.000 NA
ATOM      7  C   UNL     1      47.401  70.113  50.715  0.00  0.00    +0.000 C 
ATOM      8  C   UNL     1      48.561  69.739  51.638  0.00  0.00    +0.000 C 
ATOM      9  C   UNL     1      48.855  71.180  49.036  0.00  0.00    +0.000 C 
ATOM     10  C   UNL     1      49.968  70.459  49.719  0.00  0.00    +0.000 A 
ATOM     11  C   UNL     1      46.944  72.478  50.117  0.00  0.00    +0.000 C 
ATOM     12  C   UNL     1      51.059  69.401  51.304  0.00  0.00    +0.000 A 
ATOM     13  C   UNL     1      51.393  68.809  52.617  0.00  0.00    +0.000 C 
ENDBRANCH   1  11
BRANCH   1  14
ATOM     14  C   UNL     1      46.492  75.015  49.503  0.00  0.00    +0.000 C 
BRANCH  14  15
ATOM     15  N   UNL     1      45.040  74.855  49.240  0.00  0.00    +0.000 NA
ATOM     16  H   UNL     1      44.676  74.058  49.762  0.00  0.00    +0.000 HD
ATOM     17  H   UNL     1      44.542  75.673  49.594  0.00  0.00    +0.000 HD
ENDBRANCH  14  15
BRANCH  14  18
ATOM     18  C   UNL     1      47.037  76.198  48.663  0.00  0.00    +0.000 C 
BRANCH  18  20
ATOM     19  F   UNL     1      48.308  78.431  47.360  0.00  0.00    +0.000 F 
ATOM     20  C   UNL     1      48.200  76.987  49.237  0.00  0.00    +0.000 A 
ATOM     21  C   UNL     1      48.768  78.082  48.572  0.00  0.00    +0.000 A 
ATOM     22  C   UNL     1      48.710  76.670  50.509  0.00  0.00    +0.000 A 
ATOM     23  C   UNL     1      49.792  78.840  49.145  0.00  0.00    +0.000 A 
ATOM     24  C   UNL     1      49.736  77.427  51.092  0.00  0.00    +0.000 A 
ATOM     25  C   UNL     1      50.278  78.515  50.410  0.00  0.00    +0.000 A 
ENDBRANCH  18  20
ENDBRANCH  14  18
ENDBRANCH   1  14
TORSDOF 5
ENDMDL
MODEL 2
REMARK VINA RESULT:      -7.7     22.186     24.146
REMARK  Name = 9922961
REMARK  6 active torsions:
REMARK  status: ('A' for Active; 'I' for Inactive)
REMARK    1  A    between atoms: N_6  and  C_13
REMARK    2  A    between atoms: C_12  and  C_13
REMARK    3  A    between atoms: C_12  and  C_14
REMARK    4  A    between atoms: C_13  and  C_15
REMARK    5  A    between atoms: C_15  and  C_17
REMARK    6  A    between atoms: C_16  and  C_18
REMARK                            x       y       z     vdW  Elec       q    Type
REMARK                         _______ _______ _______ _____ _____    ______ ____
ROOT
ATOM      1  C   UNL     1      28.647  63.846  37.957  0.00  0.00    +0.000 C 
ENDROOT
BRANCH   1  11
ATOM      2  O   UNL     1      31.049  63.846  37.875  0.00  0.00    +0.000 OA
ATOM      3  N   UNL     1      30.141  64.796  39.749  0.00  0.00    +0.000 N 
ATOM      4  N   UNL     1      30.724  64.601  42.443  0.00  0.00    +0.000 N 
ATOM      5  N   UNL     1      28.657  64.764  43.126  0.00  0.00    +0.000 NA
ATOM      6  N   UNL     1      29.447  64.393  44.191  0.00  0.00    +0.000 NA
ATOM      7  C   UNL     1      31.453  65.290  40.218  0.00  0.00    +0.000 C 
ATOM      8  C   UNL     1      31.844  64.602  41.527  0.00  0.00    +0.000 C 
ATOM      9  C   UNL     1      29.033  65.120  40.652  0.00  0.00    +0.000 C 
ATOM     10  C   UNL     1      29.428  64.845  42.064  0.00  0.00    +0.000 A 
ATOM     11  C   UNL     1      30.046  64.136  38.530  0.00  0.00    +0.000 C 
ATOM     12  C   UNL     1      30.686  64.248  43.763  0.00  0.00    +0.000 A 
ATOM     13  C   UNL     1      31.833  63.736  44.542  0.00  0.00    +0.000 C 
ENDBRANCH   1  11
BRANCH   1  14
ATOM     14  C   UNL     1      28.477  63.858  36.414  0.00  0.00    +0.000 C 
BRANCH  14  15
ATOM     15  N   UNL     1      29.154  62.638  35.910  0.00  0.00    +0.000 NA
ATOM     16  H   UNL     1      29.490  62.791  34.959  0.00  0.00    +0.000 HD
ATOM     17  H   UNL     1      29.984  62.456  36.475  0.00  0.00    +0.000 HD
ENDBRANCH  14  15
BRANCH  14  18
ATOM     18  C   UNL     1      29.103  65.105  35.739  0.00  0.00    +0.000 C 
BRANCH  18  20
ATOM     19  F   UNL     1      29.407  67.171  37.724  0.00  0.00    +0.000 F 
ATOM     20  C   UNL     1      28.304  66.396  35.774  0.00  0.00    +0.000 A 
ATOM     21  C   UNL     1      28.507  67.381  36.750  0.00  0.00    +0.000 A 
ATOM     22  C   UNL     1      27.359  66.670  34.770  0.00  0.00    +0.000 A 
ATOM     23  C   UNL     1      27.812  68.592  36.728  0.00  0.00    +0.000 A 
ATOM     24  C   UNL     1      26.658  67.884  34.739  0.00  0.00    +0.000 A 
ATOM     25  C   UNL     1      26.885  68.848  35.719  0.00  0.00    +0.000 A 
ENDBRANCH  18  20
ENDBRANCH  14  18
ENDBRANCH   1  14
TORSDOF 5
ENDMDL
MODEL 3
REMARK VINA RESULT:      -7.2      1.839      2.376
REMARK  Name = 9922961
REMARK  6 active torsions:
REMARK  status: ('A' for Active; 'I' for Inactive)
REMARK    1  A    between atoms: N_6  and  C_13
REMARK    2  A    between atoms: C_12  and  C_13
REMARK    3  A    between atoms: C_12  and  C_14
REMARK    4  A    between atoms: C_13  and  C_15
REMARK    5  A    between atoms: C_15  and  C_17
REMARK    6  A    between atoms: C_16  and  C_18
REMARK                            x       y       z     vdW  Elec       q    Type
REMARK                         _______ _______ _______ _____ _____    ______ ____
ROOT
ATOM      1  C   UNL     1      46.890  75.706  50.698  0.00  0.00    +0.000 C 
ENDROOT
BRANCH   1  11
ATOM      2  O   UNL     1      45.618  74.439  52.295  0.00  0.00    +0.000 OA
ATOM      3  N   UNL     1      46.348  73.256  50.477  0.00  0.00    +0.000 N 
ATOM      4  N   UNL     1      47.523  70.772  50.180  0.00  0.00    +0.000 N 
ATOM      5  N   UNL     1      48.807  71.337  48.507  0.00  0.00    +0.000 NA
ATOM      6  N   UNL     1      49.191  70.095  48.959  0.00  0.00    +0.000 NA
ATOM      7  C   UNL     1      45.563  72.061  50.852  0.00  0.00    +0.000 C 
ATOM      8  C   UNL     1      46.494  70.896  51.189  0.00  0.00    +0.000 C 
ATOM      9  C   UNL     1      47.137  73.081  49.253  0.00  0.00    +0.000 C 
ATOM     10  C   UNL     1      47.828  71.759  49.276  0.00  0.00    +0.000 A 
ATOM     11  C   UNL     1      46.254  74.414  51.240  0.00  0.00    +0.000 C 
ATOM     12  C   UNL     1      48.446  69.780  50.000  0.00  0.00    +0.000 A 
ATOM     13  C   UNL     1      48.604  68.596  50.871  0.00  0.00    +0.000 C 
ENDBRANCH   1  11
BRANCH   1  14
ATOM     14  C   UNL     1      46.150  77.046  50.961  0.00  0.00    +0.000 C 
BRANCH  14  15
ATOM     15  N   UNL     1      44.700  76.748  50.855  0.00  0.00    +0.000 NA
ATOM     16  H   UNL     1      44.250  76.873  51.762  0.00  0.00    +0.000 HD
ATOM     17  H   UNL     1      44.262  77.425  50.230  0.00  0.00    +0.000 HD
ENDBRANCH  14  15
BRANCH  14  18
ATOM     18  C   UNL     1      46.519  78.159  49.948  0.00  0.00    +0.000 C 
BRANCH  18  20
ATOM     19  F   UNL     1      48.221  77.481  47.724  0.00  0.00    +0.000 F 
ATOM     20  C   UNL     1      47.983  78.542  49.831  0.00  0.00    +0.000 A 
ATOM     21  C   UNL     1      48.763  78.207  48.716  0.00  0.00    +0.000 A 
ATOM     22  C   UNL     1      48.594  79.313  50.836  0.00  0.00    +0.000 A 
ATOM     23  C   UNL     1      50.089  78.627  48.593  0.00  0.00    +0.000 A 
ATOM     24  C   UNL     1      49.925  79.740  50.719  0.00  0.00    +0.000 A 
ATOM     25  C   UNL     1      50.674  79.398  49.595  0.00  0.00    +0.000 A 
ENDBRANCH  18  20
ENDBRANCH  14  18
ENDBRANCH   1  14
TORSDOF 5
ENDMDL
MODEL 4
REMARK VINA RESULT:      -7.2      1.862      2.378
REMARK  Name = 9922961
REMARK  6 active torsions:
REMARK  status: ('A' for Active; 'I' for Inactive)
REMARK    1  A    between atoms: N_6  and  C_13
REMARK    2  A    between atoms: C_12  and  C_13
REMARK    3  A    between atoms: C_12  and  C_14
REMARK    4  A    between atoms: C_13  and  C_15
REMARK    5  A    between atoms: C_15  and  C_17
REMARK    6  A    between atoms: C_16  and  C_18
REMARK                            x       y       z     vdW  Elec       q    Type
REMARK                         _______ _______ _______ _____ _____    ______ ____
ROOT
ATOM      1  C   UNL     1      46.091  75.014  50.052  0.00  0.00    +0.000 C 
ENDROOT
BRANCH   1  11
ATOM      2  O   UNL     1      45.105  73.724  51.823  0.00  0.00    +0.000 OA
ATOM      3  N   UNL     1      46.147  72.500  50.194  0.00  0.00    +0.000 N 
ATOM      4  N   UNL     1      47.882  70.349  50.258  0.00  0.00    +0.000 N 
ATOM      5  N   UNL     1      49.047  70.958  48.515  0.00  0.00    +0.000 NA
ATOM      6  N   UNL     1      49.699  69.919  49.143  0.00  0.00    +0.000 NA
ATOM      7  C   UNL     1      45.654  71.220  50.743  0.00  0.00    +0.000 C 
ATOM      8  C   UNL     1      46.822  70.369  51.243  0.00  0.00    +0.000 C 
ATOM      9  C   UNL     1      46.992  72.344  49.006  0.00  0.00    +0.000 C 
ATOM     10  C   UNL     1      47.974  71.241  49.219  0.00  0.00    +0.000 A 
ATOM     11  C   UNL     1      45.761  73.699  50.780  0.00  0.00    +0.000 C 
ATOM     12  C   UNL     1      49.016  69.588  50.222  0.00  0.00    +0.000 A 
ATOM     13  C   UNL     1      49.421  68.613  51.256  0.00  0.00    +0.000 C 
ENDBRANCH   1  11
BRANCH   1  14
ATOM     14  C   UNL     1      47.124  75.969  50.711  0.00  0.00    +0.000 C 
BRANCH  14  15
ATOM     15  N   UNL     1      46.871  75.912  52.171  0.00  0.00    +0.000 NA
ATOM     16  H   UNL     1      47.692  75.546  52.654  0.00  0.00    +0.000 HD
ATOM     17  H   UNL     1      46.737  76.859  52.527  0.00  0.00    +0.000 HD
ENDBRANCH  14  15
BRANCH  14  18
ATOM     18  C   UNL     1      46.997  77.436  50.227  0.00  0.00    +0.000 C 
BRANCH  18  20
ATOM     19  F   UNL     1      48.252  79.177  52.149  0.00  0.00    +0.000 F 
ATOM     20  C   UNL     1      48.281  78.208  49.986  0.00  0.00    +0.000 A 
ATOM     21  C   UNL     1      48.864  79.025  50.964  0.00  0.00    +0.000 A 
ATOM     22  C   UNL     1      48.968  78.074  48.766  0.00  0.00    +0.000 A 
ATOM     23  C   UNL     1      50.082  79.674  50.750  0.00  0.00    +0.000 A 
ATOM     24  C   UNL     1      50.193  78.721  48.544  0.00  0.00    +0.000 A 
ATOM     25  C   UNL     1      50.752  79.521  49.538  0.00  0.00    +0.000 A 
ENDBRANCH  18  20
ENDBRANCH  14  18
ENDBRANCH   1  14
TORSDOF 5
ENDMDL
MODEL 5
REMARK VINA RESULT:      -7.1      3.687      4.610
REMARK  Name = 9922961
REMARK  6 active torsions:
REMARK  status: ('A' for Active; 'I' for Inactive)
REMARK    1  A    between atoms: N_6  and  C_13
REMARK    2  A    between atoms: C_12  and  C_13
REMARK    3  A    between atoms: C_12  and  C_14
REMARK    4  A    between atoms: C_13  and  C_15
REMARK    5  A    between atoms: C_15  and  C_17
REMARK    6  A    between atoms: C_16  and  C_18
REMARK                            x       y       z     vdW  Elec       q    Type
REMARK                         _______ _______ _______ _____ _____    ______ ____
ROOT
ATOM      1  C   UNL     1      45.629  76.790  50.292  0.00  0.00    +0.000 C 
ENDROOT
BRANCH   1  11
ATOM      2  O   UNL     1      46.740  75.916  48.348  0.00  0.00    +0.000 OA
ATOM      3  N   UNL     1      46.393  74.404  50.031  0.00  0.00    +0.000 N 
ATOM      4  N   UNL     1      45.480  71.796  50.076  0.00  0.00    +0.000 N 
ATOM      5  N   UNL     1      44.425  71.967  51.979  0.00  0.00    +0.000 NA
ATOM      6  N   UNL     1      44.078  70.774  51.386  0.00  0.00    +0.000 NA
ATOM      7  C   UNL     1      47.205  73.367  49.361  0.00  0.00    +0.000 C 
ATOM      8  C   UNL     1      46.330  72.176  48.968  0.00  0.00    +0.000 C 
ATOM      9  C   UNL     1      45.816  73.967  51.306  0.00  0.00    +0.000 C 
ATOM     10  C   UNL     1      45.238  72.599  51.162  0.00  0.00    +0.000 A 
ATOM     11  C   UNL     1      46.276  75.667  49.463  0.00  0.00    +0.000 C 
ATOM     12  C   UNL     1      44.679  70.698  50.215  0.00  0.00    +0.000 A 
ATOM     13  C   UNL     1      44.486  69.649  49.192  0.00  0.00    +0.000 C 
ENDBRANCH   1  11
BRANCH   1  14
ATOM     14  C   UNL     1      46.535  77.586  51.271  0.00  0.00    +0.000 C 
BRANCH  14  15
ATOM     15  N   UNL     1      45.777  77.698  52.541  0.00  0.00    +0.000 NA
ATOM     16  H   UNL     1      44.785  77.834  52.346  0.00  0.00    +0.000 HD
ATOM     17  H   UNL     1      45.844  76.817  53.052  0.00  0.00    +0.000 HD
ENDBRANCH  14  15
BRANCH  14  18
ATOM     18  C   UNL     1      46.890  79.005  50.759  0.00  0.00    +0.000 C 
BRANCH  18  20
ATOM     19  F   UNL     1      49.203  80.022  52.144  0.00  0.00    +0.000 F 
ATOM     20  C   UNL     1      48.258  79.201  50.131  0.00  0.00    +0.000 A 
ATOM     21  C   UNL     1      49.359  79.678  50.856  0.00  0.00    +0.000 A 
ATOM     22  C   UNL     1      48.477  78.844  48.789  0.00  0.00    +0.000 A 
ATOM     23  C   UNL     1      50.627  79.788  50.281  0.00  0.00    +0.000 A 
ATOM     24  C   UNL     1      49.747  78.949  48.204  0.00  0.00    +0.000 A 
ATOM     25  C   UNL     1      50.825  79.421  48.951  0.00  0.00    +0.000 A 
ENDBRANCH  18  20
ENDBRANCH  14  18
ENDBRANCH   1  14
TORSDOF 5
ENDMDL
MODEL 6
REMARK VINA RESULT:      -6.8      5.138      6.993
REMARK  Name = 9922961
REMARK  6 active torsions:
REMARK  status: ('A' for Active; 'I' for Inactive)
REMARK    1  A    between atoms: N_6  and  C_13
REMARK    2  A    between atoms: C_12  and  C_13
REMARK    3  A    between atoms: C_12  and  C_14
REMARK    4  A    between atoms: C_13  and  C_15
REMARK    5  A    between atoms: C_15  and  C_17
REMARK    6  A    between atoms: C_16  and  C_18
REMARK                            x       y       z     vdW  Elec       q    Type
REMARK                         _______ _______ _______ _____ _____    ______ ____
ROOT
ATOM      1  C   UNL     1      46.256  77.077  51.638  0.00  0.00    +0.000 C 
ENDROOT
BRANCH   1  11
ATOM      2  O   UNL     1      46.578  74.773  51.036  0.00  0.00    +0.000 OA
ATOM      3  N   UNL     1      44.448  75.324  51.668  0.00  0.00    +0.000 N 
ATOM      4  N   UNL     1      41.953  74.735  50.634  0.00  0.00    +0.000 N 
ATOM      5  N   UNL     1      41.047  76.654  51.145  0.00  0.00    +0.000 NA
ATOM      6  N   UNL     1      40.188  75.966  50.318  0.00  0.00    +0.000 NA
ATOM      7  C   UNL     1      44.008  73.913  51.664  0.00  0.00    +0.000 C 
ATOM      8  C   UNL     1      42.950  73.688  50.583  0.00  0.00    +0.000 C 
ATOM      9  C   UNL     1      43.386  76.271  52.022  0.00  0.00    +0.000 C 
ATOM     10  C   UNL     1      42.130  75.924  51.296  0.00  0.00    +0.000 A 
ATOM     11  C   UNL     1      45.775  75.636  51.396  0.00  0.00    +0.000 C 
ATOM     12  C   UNL     1      40.761  74.829  49.973  0.00  0.00    +0.000 A 
ATOM     13  C   UNL     1      40.249  73.845  48.996  0.00  0.00    +0.000 C 
ENDBRANCH   1  11
BRANCH   1  14
ATOM     14  C   UNL     1      47.603  77.277  52.385  0.00  0.00    +0.000 C 
BRANCH  14  15
ATOM     15  N   UNL     1      47.680  78.719  52.725  0.00  0.00    +0.000 NA
ATOM     16  H   UNL     1      48.654  78.998  52.848  0.00  0.00    +0.000 HD
ATOM     17  H   UNL     1      47.329  79.269  51.941  0.00  0.00    +0.000 HD
ENDBRANCH  14  15
BRANCH  14  18
ATOM     18  C   UNL     1      48.839  76.885  51.536  0.00  0.00    +0.000 C 
BRANCH  18  20
ATOM     19  F   UNL     1      51.108  78.655  51.398  0.00  0.00    +0.000 F 
ATOM     20  C   UNL     1      49.179  77.765  50.346  0.00  0.00    +0.000 A 
ATOM     21  C   UNL     1      50.309  78.592  50.320  0.00  0.00    +0.000 A 
ATOM     22  C   UNL     1      48.382  77.726  49.188  0.00  0.00    +0.000 A 
ATOM     23  C   UNL     1      50.645  79.343  49.192  0.00  0.00    +0.000 A 
ATOM     24  C   UNL     1      48.713  78.476  48.050  0.00  0.00    +0.000 A 
ATOM     25  C   UNL     1      49.848  79.285  48.051  0.00  0.00    +0.000 A 
ENDBRANCH  18  20
ENDBRANCH  14  18
ENDBRANCH   1  14
TORSDOF 5
ENDMDL
MODEL 7
REMARK VINA RESULT:      -6.0     12.830     14.824
REMARK  Name = 9922961
REMARK  6 active torsions:
REMARK  status: ('A' for Active; 'I' for Inactive)
REMARK    1  A    between atoms: N_6  and  C_13
REMARK    2  A    between atoms: C_12  and  C_13
REMARK    3  A    between atoms: C_12  and  C_14
REMARK    4  A    between atoms: C_13  and  C_15
REMARK    5  A    between atoms: C_15  and  C_17
REMARK    6  A    between atoms: C_16  and  C_18
REMARK                            x       y       z     vdW  Elec       q    Type
REMARK                         _______ _______ _______ _____ _____    ______ ____
ROOT
ATOM      1  C   UNL     1      59.796  71.474  40.914  0.00  0.00    +0.000 C 
ENDROOT
BRANCH   1  11
ATOM      2  O   UNL     1      60.180  69.112  41.131  0.00  0.00    +0.000 OA
ATOM      3  N   UNL     1      58.549  69.698  39.636  0.00  0.00    +0.000 N 
ATOM      4  N   UNL     1      57.942  68.866  37.071  0.00  0.00    +0.000 N 
ATOM      5  N   UNL     1      57.262  70.817  36.365  0.00  0.00    +0.000 NA
ATOM      6  N   UNL     1      57.379  69.971  35.284  0.00  0.00    +0.000 NA
ATOM      7  C   UNL     1      58.130  68.295  39.436  0.00  0.00    +0.000 C 
ATOM      8  C   UNL     1      58.406  67.856  37.997  0.00  0.00    +0.000 C 
ATOM      9  C   UNL     1      57.788  70.660  38.831  0.00  0.00    +0.000 C 
ATOM     10  C   UNL     1      57.645  70.156  37.434  0.00  0.00    +0.000 A 
ATOM     11  C   UNL     1      59.547  69.999  40.554  0.00  0.00    +0.000 C 
ATOM     12  C   UNL     1      57.838  68.810  35.709  0.00  0.00    +0.000 A 
ATOM     13  C   UNL     1      58.234  67.659  34.871  0.00  0.00    +0.000 C 
ENDBRANCH   1  11
BRANCH   1  14
ATOM     14  C   UNL     1      58.747  72.191  41.808  0.00  0.00    +0.000 C 
BRANCH  14  15
ATOM     15  N   UNL     1      59.357  73.483  42.210  0.00  0.00    +0.000 NA
ATOM     16  H   UNL     1      59.716  73.419  43.162  0.00  0.00    +0.000 HD
ATOM     17  H   UNL     1      60.166  73.672  41.618  0.00  0.00    +0.000 HD
ENDBRANCH  14  15
BRANCH  14  18
ATOM     18  C   UNL     1      58.372  71.386  43.077  0.00  0.00    +0.000 C 
BRANCH  18  20
ATOM     19  F   UNL     1      55.731  72.472  42.692  0.00  0.00    +0.000 F 
ATOM     20  C   UNL     1      57.096  70.564  43.034  0.00  0.00    +0.000 A 
ATOM     21  C   UNL     1      55.836  71.140  42.820  0.00  0.00    +0.000 A 
ATOM     22  C   UNL     1      57.153  69.164  43.150  0.00  0.00    +0.000 A 
ATOM     23  C   UNL     1      54.681  70.363  42.715  0.00  0.00    +0.000 A 
ATOM     24  C   UNL     1      55.997  68.376  43.043  0.00  0.00    +0.000 A 
ATOM     25  C   UNL     1      54.759  68.976  42.824  0.00  0.00    +0.000 A 
ENDBRANCH  18  20
ENDBRANCH  14  18
ENDBRANCH   1  14
TORSDOF 5
ENDMDL
MODEL 8
REMARK VINA RESULT:      -5.8     12.724     14.149
REMARK  Name = 9922961
REMARK  6 active torsions:
REMARK  status: ('A' for Active; 'I' for Inactive)
REMARK    1  A    between atoms: N_6  and  C_13
REMARK    2  A    between atoms: C_12  and  C_13
REMARK    3  A    between atoms: C_12  and  C_14
REMARK    4  A    between atoms: C_13  and  C_15
REMARK    5  A    between atoms: C_15  and  C_17
REMARK    6  A    between atoms: C_16  and  C_18
REMARK                            x       y       z     vdW  Elec       q    Type
REMARK                         _______ _______ _______ _____ _____    ______ ____
ROOT
ATOM      1  C   UNL     1      58.562  68.771  40.788  0.00  0.00    +0.000 C 
ENDROOT
BRANCH   1  11
ATOM      2  O   UNL     1      60.013  66.878  40.497  0.00  0.00    +0.000 OA
ATOM      3  N   UNL     1      58.811  66.891  42.445  0.00  0.00    +0.000 N 
ATOM      4  N   UNL     1      57.371  64.957  43.796  0.00  0.00    +0.000 N 
ATOM      5  N   UNL     1      55.826  66.312  44.533  0.00  0.00    +0.000 NA
ATOM      6  N   UNL     1      55.428  65.015  44.773  0.00  0.00    +0.000 NA
ATOM      7  C   UNL     1      59.541  65.724  42.984  0.00  0.00    +0.000 C 
ATOM      8  C   UNL     1      58.594  64.535  43.150  0.00  0.00    +0.000 C 
ATOM      9  C   UNL     1      57.772  67.402  43.345  0.00  0.00    +0.000 C 
ATOM     10  C   UNL     1      56.979  66.268  43.903  0.00  0.00    +0.000 A 
ATOM     11  C   UNL     1      59.171  67.424  41.214  0.00  0.00    +0.000 C 
ATOM     12  C   UNL     1      56.341  64.201  44.282  0.00  0.00    +0.000 A 
ATOM     13  C   UNL     1      56.257  62.727  44.204  0.00  0.00    +0.000 C 
ENDBRANCH   1  11
BRANCH   1  14
ATOM     14  C   UNL     1      59.532  69.900  40.344  0.00  0.00    +0.000 C 
BRANCH  14  15
ATOM     15  N   UNL     1      60.506  70.071  41.450  0.00  0.00    +0.000 NA
ATOM     16  H   UNL     1      60.086  69.781  42.334  0.00  0.00    +0.000 HD
ATOM     17  H   UNL     1      61.299  69.447  41.300  0.00  0.00    +0.000 HD
ENDBRANCH  14  15
BRANCH  14  18
ATOM     18  C   UNL     1      58.819  71.250  40.077  0.00  0.00    +0.000 C 
BRANCH  18  20
ATOM     19  F   UNL     1      56.059  71.885  40.602  0.00  0.00    +0.000 F 
ATOM     20  C   UNL     1      57.721  71.267  39.029  0.00  0.00    +0.000 A 
ATOM     21  C   UNL     1      56.395  71.605  39.333  0.00  0.00    +0.000 A 
ATOM     22  C   UNL     1      58.023  70.994  37.683  0.00  0.00    +0.000 A 
ATOM     23  C   UNL     1      55.411  71.683  38.345  0.00  0.00    +0.000 A 
ATOM     24  C   UNL     1      57.041  71.071  36.685  0.00  0.00    +0.000 A 
ATOM     25  C   UNL     1      55.733  71.418  37.016  0.00  0.00    +0.000 A 
ENDBRANCH  18  20
ENDBRANCH  14  18
ENDBRANCH   1  14
TORSDOF 5
ENDMDL
MODEL 9
REMARK VINA RESULT:      -5.7     10.741     11.966
REMARK  Name = 9922961
REMARK  6 active torsions:
REMARK  status: ('A' for Active; 'I' for Inactive)
REMARK    1  A    between atoms: N_6  and  C_13
REMARK    2  A    between atoms: C_12  and  C_13
REMARK    3  A    between atoms: C_12  and  C_14
REMARK    4  A    between atoms: C_13  and  C_15
REMARK    5  A    between atoms: C_15  and  C_17
REMARK    6  A    between atoms: C_16  and  C_18
REMARK                            x       y       z     vdW  Elec       q    Type
REMARK                         _______ _______ _______ _____ _____    ______ ____
ROOT
ATOM      1  C   UNL     1      47.795  68.175  41.949  0.00  0.00    +0.000 C 
ENDROOT
BRANCH   1  11
ATOM      2  O   UNL     1      45.476  68.074  41.327  0.00  0.00    +0.000 OA
ATOM      3  N   UNL     1      46.945  67.380  39.715  0.00  0.00    +0.000 N 
ATOM      4  N   UNL     1      46.991  65.213  38.000  0.00  0.00    +0.000 N 
ATOM      5  N   UNL     1      49.159  64.956  38.033  0.00  0.00    +0.000 NA
ATOM      6  N   UNL     1      48.593  63.865  37.411  0.00  0.00    +0.000 NA
ATOM      7  C   UNL     1      45.882  67.273  38.694  0.00  0.00    +0.000 C 
ATOM      8  C   UNL     1      45.703  65.817  38.262  0.00  0.00    +0.000 C 
ATOM      9  C   UNL     1      48.274  67.002  39.223  0.00  0.00    +0.000 C 
ATOM     10  C   UNL     1      48.183  65.745  38.425  0.00  0.00    +0.000 A 
ATOM     11  C   UNL     1      46.639  67.850  40.987  0.00  0.00    +0.000 C 
ATOM     12  C   UNL     1      47.282  64.002  37.438  0.00  0.00    +0.000 A 
ATOM     13  C   UNL     1      46.283  63.005  37.000  0.00  0.00    +0.000 C 
ENDBRANCH   1  11
BRANCH   1  14
ATOM     14  C   UNL     1      48.469  69.570  41.830  0.00  0.00    +0.000 C 
BRANCH  14  15
ATOM     15  N   UNL     1      49.199  69.789  43.102  0.00  0.00    +0.000 NA
ATOM     16  H   UNL     1      49.992  70.413  42.948  0.00  0.00    +0.000 HD
ATOM     17  H   UNL     1      48.588  70.270  43.763  0.00  0.00    +0.000 HD
ENDBRANCH  14  15
BRANCH  14  18
ATOM     18  C   UNL     1      47.456  70.723  41.616  0.00  0.00    +0.000 C 
BRANCH  18  20
ATOM     19  F   UNL     1      47.880  70.528  38.773  0.00  0.00    +0.000 F 
ATOM     20  C   UNL     1      47.884  71.874  40.724  0.00  0.00    +0.000 A 
ATOM     21  C   UNL     1      48.054  71.732  39.340  0.00  0.00    +0.000 A 
ATOM     22  C   UNL     1      48.066  73.159  41.267  0.00  0.00    +0.000 A 
ATOM     23  C   UNL     1      48.381  72.817  38.524  0.00  0.00    +0.000 A 
ATOM     24  C   UNL     1      48.393  74.254  40.454  0.00  0.00    +0.000 A 
ATOM     25  C   UNL     1      48.549  74.084  39.080  0.00  0.00    +0.000 A 
ENDBRANCH  18  20
ENDBRANCH  14  18
ENDBRANCH   1  14
TORSDOF 5
ENDMDL
