MODEL 1
REMARK VINA RESULT:      -8.3      0.000      0.000
REMARK  Name = 20628257
REMARK  5 active torsions:
REMARK  status: ('A' for Active; 'I' for Inactive)
REMARK    1  A    between atoms: N_6  and  C_12
REMARK    2  A    between atoms: C_12  and  C_13
REMARK    3  A    between atoms: C_12  and  C_16
REMARK    4  A    between atoms: C_13  and  C_15
REMARK    5  A    between atoms: C_16  and  C_18
REMARK                            x       y       z     vdW  Elec       q    Type
REMARK                         _______ _______ _______ _____ _____    ______ ____
ROOT
ATOM      1  C   UNL     1      46.377  74.812  49.489  0.00  0.00    +0.000 C 
ENDROOT
BRANCH   1   2
ATOM      2  N   UNL     1      44.916  74.608  49.384  0.00  0.00    +0.000 NA
ATOM      3  H   UNL     1      44.429  75.502  49.436  0.00  0.00    +0.000 HD
ATOM      4  H   UNL     1      44.690  74.218  48.467  0.00  0.00    +0.000 HD
ENDBRANCH   1   2
BRANCH   1   5
ATOM      5  C   UNL     1      47.033  73.462  49.138  0.00  0.00    +0.000 C 
BRANCH   5  15
ATOM      6  O   UNL     1      45.804  72.296  50.852  0.00  0.00    +0.000 OA
ATOM      7  N   UNL     1      47.704  71.266  50.079  0.00  0.00    +0.000 N 
ATOM      8  N   UNL     1      49.951  69.912  50.952  0.00  0.00    +0.000 N 
ATOM      9  N   UNL     1      51.211  70.416  49.245  0.00  0.00    +0.000 NA
ATOM     10  N   UNL     1      51.978  69.760  50.184  0.00  0.00    +0.000 NA
ATOM     11  C   UNL     1      47.514  70.096  50.951  0.00  0.00    +0.000 C 
ATOM     12  C   UNL     1      48.798  71.146  49.100  0.00  0.00    +0.000 C 
ATOM     13  C   UNL     1      48.772  69.834  51.784  0.00  0.00    +0.000 C 
ATOM     14  C   UNL     1      49.990  70.516  49.726  0.00  0.00    +0.000 A 
ATOM     15  C   UNL     1      46.771  72.303  50.092  0.00  0.00    +0.000 C 
ATOM     16  C   UNL     1      51.207  69.475  51.209  0.00  0.00    +0.000 A 
ENDBRANCH   5  15
ENDBRANCH   1   5
BRANCH   1  17
ATOM     17  C   UNL     1      46.818  75.970  48.555  0.00  0.00    +0.000 C 
BRANCH  17  20
ATOM     18  F   UNL     1      50.404  76.938  51.769  0.00  0.00    +0.000 F 
ATOM     19  F   UNL     1      51.102  79.195  50.386  0.00  0.00    +0.000 F 
ATOM     20  C   UNL     1      47.952  76.838  49.076  0.00  0.00    +0.000 A 
ATOM     21  C   UNL     1      48.672  76.488  50.231  0.00  0.00    +0.000 A 
ATOM     22  C   UNL     1      48.317  78.007  48.385  0.00  0.00    +0.000 A 
ATOM     23  C   UNL     1      49.727  77.287  50.667  0.00  0.00    +0.000 A 
ATOM     24  C   UNL     1      49.379  78.802  48.827  0.00  0.00    +0.000 A 
ATOM     25  C   UNL     1      50.080  78.435  49.968  0.00  0.00    +0.000 A 
ENDBRANCH  17  20
ENDBRANCH   1  17
TORSDOF 5
ENDMDL
MODEL 2
REMARK VINA RESULT:      -7.3     26.241     27.467
REMARK  Name = 20628257
REMARK  5 active torsions:
REMARK  status: ('A' for Active; 'I' for Inactive)
REMARK    1  A    between atoms: N_6  and  C_12
REMARK    2  A    between atoms: C_12  and  C_13
REMARK    3  A    between atoms: C_12  and  C_16
REMARK    4  A    between atoms: C_13  and  C_15
REMARK    5  A    between atoms: C_16  and  C_18
REMARK                            x       y       z     vdW  Elec       q    Type
REMARK                         _______ _______ _______ _____ _____    ______ ____
ROOT
ATOM      1  C   UNL     1      47.553  52.211  33.934  0.00  0.00    +0.000 C 
ENDROOT
BRANCH   1   2
ATOM      2  N   UNL     1      47.748  53.559  33.358  0.00  0.00    +0.000 NA
ATOM      3  H   UNL     1      48.655  53.934  33.634  0.00  0.00    +0.000 HD
ATOM      4  H   UNL     1      47.769  53.496  32.338  0.00  0.00    +0.000 HD
ENDBRANCH   1   2
BRANCH   1   5
ATOM      5  C   UNL     1      48.957  51.590  34.077  0.00  0.00    +0.000 C 
BRANCH   5  15
ATOM      6  O   UNL     1      50.031  53.610  34.835  0.00  0.00    +0.000 OA
ATOM      7  N   UNL     1      50.870  51.638  35.657  0.00  0.00    +0.000 N 
ATOM      8  N   UNL     1      53.254  50.334  36.166  0.00  0.00    +0.000 N 
ATOM      9  N   UNL     1      52.458  48.310  36.009  0.00  0.00    +0.000 NA
ATOM     10  N   UNL     1      53.827  48.238  36.150  0.00  0.00    +0.000 NA
ATOM     11  C   UNL     1      51.872  52.324  36.487  0.00  0.00    +0.000 C 
ATOM     12  C   UNL     1      50.770  50.183  35.869  0.00  0.00    +0.000 C 
ATOM     13  C   UNL     1      53.275  51.779  36.202  0.00  0.00    +0.000 C 
ATOM     14  C   UNL     1      52.123  49.583  36.004  0.00  0.00    +0.000 A 
ATOM     15  C   UNL     1      49.978  52.382  34.884  0.00  0.00    +0.000 C 
ATOM     16  C   UNL     1      54.291  49.465  36.231  0.00  0.00    +0.000 A 
ENDBRANCH   5  15
ENDBRANCH   1   5
BRANCH   1  17
ATOM     17  C   UNL     1      46.789  52.316  35.281  0.00  0.00    +0.000 C 
BRANCH  17  20
ATOM     18  F   UNL     1      42.790  50.465  37.451  0.00  0.00    +0.000 F 
ATOM     19  F   UNL     1      41.358  50.708  35.131  0.00  0.00    +0.000 F 
ATOM     20  C   UNL     1      45.341  51.854  35.251  0.00  0.00    +0.000 A 
ATOM     21  C   UNL     1      44.712  51.339  36.398  0.00  0.00    +0.000 A 
ATOM     22  C   UNL     1      44.592  51.961  34.065  0.00  0.00    +0.000 A 
ATOM     23  C   UNL     1      43.374  50.952  36.349  0.00  0.00    +0.000 A 
ATOM     24  C   UNL     1      43.250  51.574  34.025  0.00  0.00    +0.000 A 
ATOM     25  C   UNL     1      42.647  51.072  35.171  0.00  0.00    +0.000 A 
ENDBRANCH  17  20
ENDBRANCH   1  17
TORSDOF 5
ENDMDL
MODEL 3
REMARK VINA RESULT:      -7.2     26.694     27.795
REMARK  Name = 20628257
REMARK  5 active torsions:
REMARK  status: ('A' for Active; 'I' for Inactive)
REMARK    1  A    between atoms: N_6  and  C_12
REMARK    2  A    between atoms: C_12  and  C_13
REMARK    3  A    between atoms: C_12  and  C_16
REMARK    4  A    between atoms: C_13  and  C_15
REMARK    5  A    between atoms: C_16  and  C_18
REMARK                            x       y       z     vdW  Elec       q    Type
REMARK                         _______ _______ _______ _____ _____    ______ ____
ROOT
ATOM      1  C   UNL     1      48.224  51.312  34.879  0.00  0.00    +0.000 C 
ENDROOT
BRANCH   1   2
ATOM      2  N   UNL     1      48.663  52.291  33.861  0.00  0.00    +0.000 NA
ATOM      3  H   UNL     1      48.535  53.242  34.207  0.00  0.00    +0.000 HD
ATOM      4  H   UNL     1      49.666  52.186  33.695  0.00  0.00    +0.000 HD
ENDBRANCH   1   2
BRANCH   1   5
ATOM      5  C   UNL     1      49.507  50.697  35.475  0.00  0.00    +0.000 C 
BRANCH   5  15
ATOM      6  O   UNL     1      50.104  49.241  33.650  0.00  0.00    +0.000 OA
ATOM      7  N   UNL     1      51.821  50.412  34.624  0.00  0.00    +0.000 N 
ATOM      8  N   UNL     1      54.412  50.110  35.540  0.00  0.00    +0.000 N 
ATOM      9  N   UNL     1      54.341  51.732  36.997  0.00  0.00    +0.000 NA
ATOM     10  N   UNL     1      55.537  51.061  37.138  0.00  0.00    +0.000 NA
ATOM     11  C   UNL     1      52.823  49.856  33.702  0.00  0.00    +0.000 C 
ATOM     12  C   UNL     1      52.312  51.478  35.514  0.00  0.00    +0.000 C 
ATOM     13  C   UNL     1      53.984  49.228  34.478  0.00  0.00    +0.000 C 
ATOM     14  C   UNL     1      53.661  51.139  36.038  0.00  0.00    +0.000 A 
ATOM     15  C   UNL     1      50.479  50.053  34.493  0.00  0.00    +0.000 C 
ATOM     16  C   UNL     1      55.558  50.082  36.263  0.00  0.00    +0.000 A 
ENDBRANCH   5  15
ENDBRANCH   1   5
BRANCH   1  17
ATOM     17  C   UNL     1      47.331  52.012  35.937  0.00  0.00    +0.000 C 
BRANCH  17  20
ATOM     18  F   UNL     1      43.126  51.892  33.402  0.00  0.00    +0.000 F 
ATOM     19  F   UNL     1      41.798  50.850  35.558  0.00  0.00    +0.000 F 
ATOM     20  C   UNL     1      45.841  51.732  35.826  0.00  0.00    +0.000 A 
ATOM     21  C   UNL     1      45.139  51.963  34.630  0.00  0.00    +0.000 A 
ATOM     22  C   UNL     1      45.140  51.208  36.927  0.00  0.00    +0.000 A 
ATOM     23  C   UNL     1      43.779  51.668  34.550  0.00  0.00    +0.000 A 
ATOM     24  C   UNL     1      43.777  50.912  36.836  0.00  0.00    +0.000 A 
ATOM     25  C   UNL     1      43.103  51.143  35.644  0.00  0.00    +0.000 A 
ENDBRANCH  17  20
ENDBRANCH   1  17
TORSDOF 5
ENDMDL
MODEL 4
REMARK VINA RESULT:      -7.0     22.475     24.493
REMARK  Name = 20628257
REMARK  5 active torsions:
REMARK  status: ('A' for Active; 'I' for Inactive)
REMARK    1  A    between atoms: N_6  and  C_12
REMARK    2  A    between atoms: C_12  and  C_13
REMARK    3  A    between atoms: C_12  and  C_16
REMARK    4  A    between atoms: C_13  and  C_15
REMARK    5  A    between atoms: C_16  and  C_18
REMARK                            x       y       z     vdW  Elec       q    Type
REMARK                         _______ _______ _______ _____ _____    ______ ____
ROOT
ATOM      1  C   UNL     1      30.387  63.879  37.238  0.00  0.00    +0.000 C 
ENDROOT
BRANCH   1   2
ATOM      2  N   UNL     1      31.635  63.092  37.341  0.00  0.00    +0.000 NA
ATOM      3  H   UNL     1      31.808  62.588  36.472  0.00  0.00    +0.000 HD
ATOM      4  H   UNL     1      32.429  63.724  37.463  0.00  0.00    +0.000 HD
ENDBRANCH   1   2
BRANCH   1   5
ATOM      5  C   UNL     1      29.897  64.110  38.682  0.00  0.00    +0.000 C 
BRANCH   5  15
ATOM      6  O   UNL     1      32.018  64.881  39.526  0.00  0.00    +0.000 OA
ATOM      7  N   UNL     1      30.146  65.780  40.500  0.00  0.00    +0.000 N 
ATOM      8  N   UNL     1      29.077  66.429  42.966  0.00  0.00    +0.000 N 
ATOM      9  N   UNL     1      26.986  66.273  42.370  0.00  0.00    +0.000 NA
ATOM     10  N   UNL     1      27.044  66.482  43.731  0.00  0.00    +0.000 NA
ATOM     11  C   UNL     1      30.934  66.644  41.393  0.00  0.00    +0.000 C 
ATOM     12  C   UNL     1      28.691  66.015  40.525  0.00  0.00    +0.000 C 
ATOM     13  C   UNL     1      30.518  66.438  42.852  0.00  0.00    +0.000 C 
ATOM     14  C   UNL     1      28.222  66.227  41.919  0.00  0.00    +0.000 A 
ATOM     15  C   UNL     1      30.792  64.951  39.584  0.00  0.00    +0.000 C 
ATOM     16  C   UNL     1      28.309  66.562  44.075  0.00  0.00    +0.000 A 
ENDBRANCH   5  15
ENDBRANCH   1   5
BRANCH   1  17
ATOM     17  C   UNL     1      30.654  65.196  36.463  0.00  0.00    +0.000 C 
BRANCH  17  20
ATOM     18  F   UNL     1      27.462  68.899  36.940  0.00  0.00    +0.000 F 
ATOM     19  F   UNL     1      26.091  68.068  34.721  0.00  0.00    +0.000 F 
ATOM     20  C   UNL     1      29.416  65.963  36.027  0.00  0.00    +0.000 A 
ATOM     21  C   UNL     1      28.981  67.108  36.716  0.00  0.00    +0.000 A 
ATOM     22  C   UNL     1      28.692  65.544  34.895  0.00  0.00    +0.000 A 
ATOM     23  C   UNL     1      27.860  67.808  36.273  0.00  0.00    +0.000 A 
ATOM     24  C   UNL     1      27.571  66.254  34.456  0.00  0.00    +0.000 A 
ATOM     25  C   UNL     1      27.162  67.386  35.149  0.00  0.00    +0.000 A 
ENDBRANCH  17  20
ENDBRANCH   1  17
TORSDOF 5
ENDMDL
MODEL 5
REMARK VINA RESULT:      -7.0     21.529     23.545
REMARK  Name = 20628257
REMARK  5 active torsions:
REMARK  status: ('A' for Active; 'I' for Inactive)
REMARK    1  A    between atoms: N_6  and  C_12
REMARK    2  A    between atoms: C_12  and  C_13
REMARK    3  A    between atoms: C_12  and  C_16
REMARK    4  A    between atoms: C_13  and  C_15
REMARK    5  A    between atoms: C_16  and  C_18
REMARK                            x       y       z     vdW  Elec       q    Type
REMARK                         _______ _______ _______ _____ _____    ______ ____
ROOT
ATOM      1  C   UNL     1      28.433  64.568  38.898  0.00  0.00    +0.000 C 
ENDROOT
BRANCH   1   2
ATOM      2  N   UNL     1      28.265  63.350  39.720  0.00  0.00    +0.000 NA
ATOM      3  H   UNL     1      27.416  62.855  39.449  0.00  0.00    +0.000 HD
ATOM      4  H   UNL     1      29.036  62.704  39.537  0.00  0.00    +0.000 HD
ENDBRANCH   1   2
BRANCH   1   5
ATOM      5  C   UNL     1      28.665  65.731  39.884  0.00  0.00    +0.000 C 
BRANCH   5  15
ATOM      6  O   UNL     1      29.520  64.647  41.859  0.00  0.00    +0.000 OA
ATOM      7  N   UNL     1      30.810  66.328  40.978  0.00  0.00    +0.000 N 
ATOM      8  N   UNL     1      32.288  68.546  41.714  0.00  0.00    +0.000 N 
ATOM      9  N   UNL     1      32.091  69.605  39.818  0.00  0.00    +0.000 NA
ATOM     10  N   UNL     1      32.722  70.431  40.723  0.00  0.00    +0.000 NA
ATOM     11  C   UNL     1      31.860  66.157  41.995  0.00  0.00    +0.000 C 
ATOM     12  C   UNL     1      31.139  67.267  39.891  0.00  0.00    +0.000 C 
ATOM     13  C   UNL     1      32.163  67.487  42.690  0.00  0.00    +0.000 C 
ATOM     14  C   UNL     1      31.819  68.472  40.432  0.00  0.00    +0.000 A 
ATOM     15  C   UNL     1      29.688  65.500  40.989  0.00  0.00    +0.000 C 
ATOM     16  C   UNL     1      32.822  69.783  41.862  0.00  0.00    +0.000 A 
ENDBRANCH   5  15
ENDBRANCH   1   5
BRANCH   1  17
ATOM     17  C   UNL     1      29.601  64.373  37.895  0.00  0.00    +0.000 C 
BRANCH  17  20
ATOM     18  F   UNL     1      31.241  67.116  34.165  0.00  0.00    +0.000 F 
ATOM     19  F   UNL     1      28.901  66.740  32.794  0.00  0.00    +0.000 F 
ATOM     20  C   UNL     1      29.420  65.039  36.540  0.00  0.00    +0.000 A 
ATOM     21  C   UNL     1      30.441  65.812  35.960  0.00  0.00    +0.000 A 
ATOM     22  C   UNL     1      28.220  64.866  35.826  0.00  0.00    +0.000 A 
ATOM     23  C   UNL     1      30.257  66.384  34.703  0.00  0.00    +0.000 A 
ATOM     24  C   UNL     1      28.046  65.441  34.564  0.00  0.00    +0.000 A 
ATOM     25  C   UNL     1      29.069  66.197  34.008  0.00  0.00    +0.000 A 
ENDBRANCH  17  20
ENDBRANCH   1  17
TORSDOF 5
ENDMDL
MODEL 6
REMARK VINA RESULT:      -6.8     12.452     13.852
REMARK  Name = 20628257
REMARK  5 active torsions:
REMARK  status: ('A' for Active; 'I' for Inactive)
REMARK    1  A    between atoms: N_6  and  C_12
REMARK    2  A    between atoms: C_12  and  C_13
REMARK    3  A    between atoms: C_12  and  C_16
REMARK    4  A    between atoms: C_13  and  C_15
REMARK    5  A    between atoms: C_16  and  C_18
REMARK                            x       y       z     vdW  Elec       q    Type
REMARK                         _______ _______ _______ _____ _____    ______ ____
ROOT
ATOM      1  C   UNL     1      53.218  70.665  38.435  0.00  0.00    +0.000 C 
ENDROOT
BRANCH   1   2
ATOM      2  N   UNL     1      53.778  69.318  38.188  0.00  0.00    +0.000 NA
ATOM      3  H   UNL     1      53.730  69.093  37.195  0.00  0.00    +0.000 HD
ATOM      4  H   UNL     1      54.770  69.310  38.431  0.00  0.00    +0.000 HD
ENDBRANCH   1   2
BRANCH   1   5
ATOM      5  C   UNL     1      54.197  71.669  37.793  0.00  0.00    +0.000 C 
BRANCH   5  15
ATOM      6  O   UNL     1      55.082  70.418  35.933  0.00  0.00    +0.000 OA
ATOM      7  N   UNL     1      56.619  71.321  37.377  0.00  0.00    +0.000 N 
ATOM      8  N   UNL     1      58.952  70.711  38.729  0.00  0.00    +0.000 N 
ATOM      9  N   UNL     1      58.664  72.133  40.357  0.00  0.00    +0.000 NA
ATOM     10  N   UNL     1      59.774  71.362  40.633  0.00  0.00    +0.000 NA
ATOM     11  C   UNL     1      57.759  70.814  36.599  0.00  0.00    +0.000 C 
ATOM     12  C   UNL     1      56.970  72.225  38.487  0.00  0.00    +0.000 C 
ATOM     13  C   UNL     1      58.707  70.007  37.491  0.00  0.00    +0.000 C 
ATOM     14  C   UNL     1      58.166  71.721  39.210  0.00  0.00    +0.000 A 
ATOM     15  C   UNL     1      55.316  71.085  36.939  0.00  0.00    +0.000 C 
ATOM     16  C   UNL     1      59.925  70.504  39.649  0.00  0.00    +0.000 A 
ENDBRANCH   5  15
ENDBRANCH   1   5
BRANCH   1  17
ATOM     17  C   UNL     1      51.781  70.756  37.857  0.00  0.00    +0.000 C 
BRANCH  17  20
ATOM     18  F   UNL     1      48.183  73.992  38.698  0.00  0.00    +0.000 F 
ATOM     19  F   UNL     1      47.883  73.068  41.258  0.00  0.00    +0.000 F 
ATOM     20  C   UNL     1      50.749  71.407  38.764  0.00  0.00    +0.000 A 
ATOM     21  C   UNL     1      49.922  72.447  38.306  0.00  0.00    +0.000 A 
ATOM     22  C   UNL     1      50.588  70.953  40.086  0.00  0.00    +0.000 A 
ATOM     23  C   UNL     1      48.964  73.003  39.152  0.00  0.00    +0.000 A 
ATOM     24  C   UNL     1      49.623  71.514  40.926  0.00  0.00    +0.000 A 
ATOM     25  C   UNL     1      48.813  72.537  40.452  0.00  0.00    +0.000 A 
ENDBRANCH  17  20
ENDBRANCH   1  17
TORSDOF 5
ENDMDL
MODEL 7
REMARK VINA RESULT:      -6.6     13.972     15.918
REMARK  Name = 20628257
REMARK  5 active torsions:
REMARK  status: ('A' for Active; 'I' for Inactive)
REMARK    1  A    between atoms: N_6  and  C_12
REMARK    2  A    between atoms: C_12  and  C_13
REMARK    3  A    between atoms: C_12  and  C_16
REMARK    4  A    between atoms: C_13  and  C_15
REMARK    5  A    between atoms: C_16  and  C_18
REMARK                            x       y       z     vdW  Elec       q    Type
REMARK                         _______ _______ _______ _____ _____    ______ ____
ROOT
ATOM      1  C   UNL     1      60.250  70.597  40.406  0.00  0.00    +0.000 C 
ENDROOT
BRANCH   1   2
ATOM      2  N   UNL     1      61.517  71.032  41.035  0.00  0.00    +0.000 NA
ATOM      3  H   UNL     1      61.752  70.421  41.816  0.00  0.00    +0.000 HD
ATOM      4  H   UNL     1      62.282  70.937  40.364  0.00  0.00    +0.000 HD
ENDBRANCH   1   2
BRANCH   1   5
ATOM      5  C   UNL     1      59.234  71.733  40.641  0.00  0.00    +0.000 C 
BRANCH   5  15
ATOM      6  O   UNL     1      57.772  70.843  42.339  0.00  0.00    +0.000 OA
ATOM      7  N   UNL     1      56.774  71.526  40.388  0.00  0.00    +0.000 N 
ATOM      8  N   UNL     1      54.875  70.754  38.533  0.00  0.00    +0.000 N 
ATOM      9  N   UNL     1      55.713  71.868  36.856  0.00  0.00    +0.000 NA
ATOM     10  N   UNL     1      54.672  71.090  36.395  0.00  0.00    +0.000 NA
ATOM     11  C   UNL     1      55.427  71.190  40.873  0.00  0.00    +0.000 C 
ATOM     12  C   UNL     1      56.817  72.234  39.097  0.00  0.00    +0.000 C 
ATOM     13  C   UNL     1      54.710  70.267  39.883  0.00  0.00    +0.000 C 
ATOM     14  C   UNL     1      55.837  71.645  38.147  0.00  0.00    +0.000 A 
ATOM     15  C   UNL     1      57.880  71.334  41.216  0.00  0.00    +0.000 C 
ATOM     16  C   UNL     1      54.187  70.418  37.415  0.00  0.00    +0.000 A 
ENDBRANCH   5  15
ENDBRANCH   1   5
BRANCH   1  17
ATOM     17  C   UNL     1      60.485  70.285  38.905  0.00  0.00    +0.000 C 
BRANCH  17  20
ATOM     18  F   UNL     1      57.632  69.732  34.945  0.00  0.00    +0.000 F 
ATOM     19  F   UNL     1      56.164  67.798  36.210  0.00  0.00    +0.000 F 
ATOM     20  C   UNL     1      59.312  69.648  38.176  0.00  0.00    +0.000 A 
ATOM     21  C   UNL     1      58.987  70.005  36.856  0.00  0.00    +0.000 A 
ATOM     22  C   UNL     1      58.539  68.661  38.815  0.00  0.00    +0.000 A 
ATOM     23  C   UNL     1      57.926  69.381  36.203  0.00  0.00    +0.000 A 
ATOM     24  C   UNL     1      57.478  68.039  38.152  0.00  0.00    +0.000 A 
ATOM     25  C   UNL     1      57.178  68.402  36.846  0.00  0.00    +0.000 A 
ENDBRANCH  17  20
ENDBRANCH   1  17
TORSDOF 5
ENDMDL
MODEL 8
REMARK VINA RESULT:      -6.4     22.634     25.749
REMARK  Name = 20628257
REMARK  5 active torsions:
REMARK  status: ('A' for Active; 'I' for Inactive)
REMARK    1  A    between atoms: N_6  and  C_12
REMARK    2  A    between atoms: C_12  and  C_13
REMARK    3  A    between atoms: C_12  and  C_16
REMARK    4  A    between atoms: C_13  and  C_15
REMARK    5  A    between atoms: C_16  and  C_18
REMARK                            x       y       z     vdW  Elec       q    Type
REMARK                         _______ _______ _______ _____ _____    ______ ____
ROOT
ATOM      1  C   UNL     1      35.378  53.176  45.896  0.00  0.00    +0.000 C 
ENDROOT
BRANCH   1   2
ATOM      2  N   UNL     1      34.260  53.742  45.109  0.00  0.00    +0.000 NA
ATOM      3  H   UNL     1      34.194  54.748  45.261  0.00  0.00    +0.000 HD
ATOM      4  H   UNL     1      34.447  53.620  44.112  0.00  0.00    +0.000 HD
ENDBRANCH   1   2
BRANCH   1   5
ATOM      5  C   UNL     1      36.117  54.374  46.527  0.00  0.00    +0.000 C 
BRANCH   5  15
ATOM      6  O   UNL     1      34.832  56.358  46.058  0.00  0.00    +0.000 OA
ATOM      7  N   UNL     1      35.038  55.775  48.268  0.00  0.00    +0.000 N 
ATOM      8  N   UNL     1      35.549  56.853  50.762  0.00  0.00    +0.000 N 
ATOM      9  N   UNL     1      36.348  55.029  51.651  0.00  0.00    +0.000 NA
ATOM     10  N   UNL     1      36.507  56.065  52.547  0.00  0.00    +0.000 NA
ATOM     11  C   UNL     1      34.208  56.902  48.720  0.00  0.00    +0.000 C 
ATOM     12  C   UNL     1      35.409  54.810  49.318  0.00  0.00    +0.000 C 
ATOM     13  C   UNL     1      34.944  57.725  49.781  0.00  0.00    +0.000 C 
ATOM     14  C   UNL     1      35.781  55.519  50.569  0.00  0.00    +0.000 A 
ATOM     15  C   UNL     1      35.267  55.581  46.906  0.00  0.00    +0.000 C 
ATOM     16  C   UNL     1      36.032  57.157  51.991  0.00  0.00    +0.000 A 
ENDBRANCH   5  15
ENDBRANCH   1   5
BRANCH   1  17
ATOM     17  C   UNL     1      34.832  52.171  46.944  0.00  0.00    +0.000 C 
BRANCH  17  20
ATOM     18  F   UNL     1      34.553  47.401  48.085  0.00  0.00    +0.000 F 
ATOM     19  F   UNL     1      35.995  46.733  45.856  0.00  0.00    +0.000 F 
ATOM     20  C   UNL     1      35.159  50.709  46.683  0.00  0.00    +0.000 A 
ATOM     21  C   UNL     1      34.705  49.692  47.541  0.00  0.00    +0.000 A 
ATOM     22  C   UNL     1      35.908  50.348  45.549  0.00  0.00    +0.000 A 
ATOM     23  C   UNL     1      34.994  48.358  47.258  0.00  0.00    +0.000 A 
ATOM     24  C   UNL     1      36.191  49.007  45.271  0.00  0.00    +0.000 A 
ATOM     25  C   UNL     1      35.729  48.017  46.129  0.00  0.00    +0.000 A 
ENDBRANCH  17  20
ENDBRANCH   1  17
TORSDOF 5
ENDMDL
MODEL 9
REMARK VINA RESULT:      -6.4     26.082     27.805
REMARK  Name = 20628257
REMARK  5 active torsions:
REMARK  status: ('A' for Active; 'I' for Inactive)
REMARK    1  A    between atoms: N_6  and  C_12
REMARK    2  A    between atoms: C_12  and  C_13
REMARK    3  A    between atoms: C_12  and  C_16
REMARK    4  A    between atoms: C_13  and  C_15
REMARK    5  A    between atoms: C_16  and  C_18
REMARK                            x       y       z     vdW  Elec       q    Type
REMARK                         _______ _______ _______ _____ _____    ______ ____
ROOT
ATOM      1  C   UNL     1      47.723  51.698  36.884  0.00  0.00    +0.000 C 
ENDROOT
BRANCH   1   2
ATOM      2  N   UNL     1      47.151  50.730  37.844  0.00  0.00    +0.000 NA
ATOM      3  H   UNL     1      47.887  50.330  38.424  0.00  0.00    +0.000 HD
ATOM      4  H   UNL     1      46.521  51.215  38.486  0.00  0.00    +0.000 HD
ENDBRANCH   1   2
BRANCH   1   5
ATOM      5  C   UNL     1      48.248  50.872  35.692  0.00  0.00    +0.000 C 
BRANCH   5  15
ATOM      6  O   UNL     1      49.077  52.342  33.972  0.00  0.00    +0.000 OA
ATOM      7  N   UNL     1      50.644  51.083  35.080  0.00  0.00    +0.000 N 
ATOM      8  N   UNL     1      52.882  49.521  34.642  0.00  0.00    +0.000 N 
ATOM      9  N   UNL     1      52.667  48.289  36.429  0.00  0.00    +0.000 NA
ATOM     10  N   UNL     1      53.702  47.789  35.667  0.00  0.00    +0.000 NA
ATOM     11  C   UNL     1      51.760  51.667  34.320  0.00  0.00    +0.000 C 
ATOM     12  C   UNL     1      51.037  50.203  36.194  0.00  0.00    +0.000 C 
ATOM     13  C   UNL     1      52.614  50.568  33.683  0.00  0.00    +0.000 C 
ATOM     14  C   UNL     1      52.168  49.328  35.792  0.00  0.00    +0.000 A 
ATOM     15  C   UNL     1      49.338  51.512  34.841  0.00  0.00    +0.000 C 
ATOM     16  C   UNL     1      53.810  48.534  34.591  0.00  0.00    +0.000 A 
ENDBRANCH   5  15
ENDBRANCH   1   5
BRANCH   1  17
ATOM     17  C   UNL     1      46.648  52.742  36.481  0.00  0.00    +0.000 C 
BRANCH  17  20
ATOM     18  F   UNL     1      43.532  51.204  33.009  0.00  0.00    +0.000 F 
ATOM     19  F   UNL     1      41.686  50.507  34.906  0.00  0.00    +0.000 F 
ATOM     20  C   UNL     1      45.311  52.170  36.038  0.00  0.00    +0.000 A 
ATOM     21  C   UNL     1      45.017  51.957  34.680  0.00  0.00    +0.000 A 
ATOM     22  C   UNL     1      44.346  51.815  36.998  0.00  0.00    +0.000 A 
ATOM     23  C   UNL     1      43.795  51.402  34.307  0.00  0.00    +0.000 A 
ATOM     24  C   UNL     1      43.123  51.256  36.616  0.00  0.00    +0.000 A 
ATOM     25  C   UNL     1      42.855  51.050  35.269  0.00  0.00    +0.000 A 
ENDBRANCH  17  20
ENDBRANCH   1  17
TORSDOF 5
ENDMDL
