MODEL 1
REMARK VINA RESULT:      -9.2      0.000      0.000
REMARK  Name = 10436080
REMARK  7 active torsions:
REMARK  status: ('A' for Active; 'I' for Inactive)
REMARK    1  A    between atoms: N_13  and  C_21
REMARK    2  A    between atoms: C_14  and  C_19
REMARK    3  A    between atoms: C_18  and  C_20
REMARK    4  A    between atoms: C_20  and  C_21
REMARK    5  A    between atoms: C_21  and  C_22
REMARK    6  A    between atoms: C_22  and  C_26
REMARK    7  A    between atoms: C_23  and  C_27
REMARK                            x       y       z     vdW  Elec       q    Type
REMARK                         _______ _______ _______ _____ _____    ______ ____
ROOT
ATOM      1  O   UNL     1      54.631  71.817  36.765  0.00  0.00    +0.000 OA
ATOM      2  N   UNL     1      54.616  70.585  38.707  0.00  0.00    +0.000 N 
ATOM      3  N   UNL     1      54.819  70.857  41.439  0.00  0.00    +0.000 N 
ATOM      4  N   UNL     1      56.597  72.103  41.496  0.00  0.00    +0.000 NA
ATOM      5  N   UNL     1      54.956  71.108  42.744  0.00  0.00    +0.000 NA
ATOM      6  C   UNL     1      55.878  71.217  39.187  0.00  0.00    +0.000 C 
ATOM      7  C   UNL     1      54.064  69.520  39.557  0.00  0.00    +0.000 C 
ATOM      8  C   UNL     1      53.732  70.045  40.944  0.00  0.00    +0.000 C 
ATOM      9  C   UNL     1      55.796  71.435  40.684  0.00  0.00    +0.000 A 
ATOM     10  C   UNL     1      54.084  70.973  37.475  0.00  0.00    +0.000 C 
ATOM     11  C   UNL     1      56.065  71.885  42.766  0.00  0.00    +0.000 A 
ENDROOT
BRANCH   6  13
ATOM     12  F   UNL     1      60.430  68.138  37.749  0.00  0.00    +0.000 F 
ATOM     13  C   UNL     1      57.095  70.386  38.759  0.00  0.00    +0.000 A 
ATOM     14  C   UNL     1      57.469  69.264  39.523  0.00  0.00    +0.000 A 
ATOM     15  C   UNL     1      57.886  70.722  37.641  0.00  0.00    +0.000 A 
ATOM     16  C   UNL     1      58.592  68.506  39.180  0.00  0.00    +0.000 A 
ATOM     17  C   UNL     1      59.008  69.962  37.300  0.00  0.00    +0.000 A 
ATOM     18  C   UNL     1      59.351  68.862  38.073  0.00  0.00    +0.000 A 
ENDBRANCH   6  13
BRANCH  11  22
ATOM     19  F   UNL     1      55.739  72.944  44.900  0.00  0.00    +0.000 F 
ATOM     20  F   UNL     1      57.563  73.428  43.809  0.00  0.00    +0.000 F 
ATOM     21  F   UNL     1      57.340  71.471  44.750  0.00  0.00    +0.000 F 
ATOM     22  C   UNL     1      56.667  72.428  44.048  0.00  0.00    +0.000 C 
ENDBRANCH  11  22
BRANCH  10  23
ATOM     23  C   UNL     1      52.759  70.334  37.064  0.00  0.00    +0.000 C 
BRANCH  23  24
ATOM     24  C   UNL     1      51.542  71.282  37.053  0.00  0.00    +0.000 C 
BRANCH  24  25
ATOM     25  N   UNL     1      51.965  72.532  37.724  0.00  0.00    +0.000 NA
ATOM     26  H   UNL     1      52.915  72.785  37.447  0.00  0.00    +0.000 HD
ATOM     27  H   UNL     1      52.018  72.370  38.731  0.00  0.00    +0.000 HD
ENDBRANCH  24  25
BRANCH  24  28
ATOM     28  C   UNL     1      50.306  70.668  37.763  0.00  0.00    +0.000 C 
BRANCH  28  32
ATOM     29  F   UNL     1      50.441  69.987  40.528  0.00  0.00    +0.000 F 
ATOM     30  F   UNL     1      47.875  74.635  39.318  0.00  0.00    +0.000 F 
ATOM     31  F   UNL     1      48.033  73.781  41.914  0.00  0.00    +0.000 F 
ATOM     32  C   UNL     1      49.719  71.527  38.871  0.00  0.00    +0.000 A 
ATOM     33  C   UNL     1      49.801  71.121  40.212  0.00  0.00    +0.000 A 
ATOM     34  C   UNL     1      49.057  72.731  38.581  0.00  0.00    +0.000 A 
ATOM     35  C   UNL     1      48.499  73.486  39.611  0.00  0.00    +0.000 A 
ATOM     36  C   UNL     1      49.240  71.872  41.242  0.00  0.00    +0.000 A 
ATOM     37  C   UNL     1      48.585  73.056  40.931  0.00  0.00    +0.000 A 
ENDBRANCH  28  32
ENDBRANCH  24  28
ENDBRANCH  23  24
ENDBRANCH  10  23
TORSDOF 7
ENDMDL
MODEL 2
REMARK VINA RESULT:      -8.8     23.719     26.077
REMARK  Name = 10436080
REMARK  7 active torsions:
REMARK  status: ('A' for Active; 'I' for Inactive)
REMARK    1  A    between atoms: N_13  and  C_21
REMARK    2  A    between atoms: C_14  and  C_19
REMARK    3  A    between atoms: C_18  and  C_20
REMARK    4  A    between atoms: C_20  and  C_21
REMARK    5  A    between atoms: C_21  and  C_22
REMARK    6  A    between atoms: C_22  and  C_26
REMARK    7  A    between atoms: C_23  and  C_27
REMARK                            x       y       z     vdW  Elec       q    Type
REMARK                         _______ _______ _______ _____ _____    ______ ____
ROOT
ATOM      1  O   UNL     1      43.814  48.782  39.703  0.00  0.00    +0.000 OA
ATOM      2  N   UNL     1      42.192  50.358  39.288  0.00  0.00    +0.000 N 
ATOM      3  N   UNL     1      39.593  50.605  38.414  0.00  0.00    +0.000 N 
ATOM      4  N   UNL     1      39.747  49.373  36.631  0.00  0.00    +0.000 NA
ATOM      5  N   UNL     1      38.339  50.603  37.952  0.00  0.00    +0.000 NA
ATOM      6  C   UNL     1      41.930  49.814  37.924  0.00  0.00    +0.000 C 
ATOM      7  C   UNL     1      41.445  51.571  39.654  0.00  0.00    +0.000 C 
ATOM      8  C   UNL     1      39.945  51.320  39.617  0.00  0.00    +0.000 C 
ATOM      9  C   UNL     1      40.445  49.884  37.630  0.00  0.00    +0.000 A 
ATOM     10  C   UNL     1      43.160  49.750  40.090  0.00  0.00    +0.000 C 
ATOM     11  C   UNL     1      38.448  49.832  36.844  0.00  0.00    +0.000 A 
ENDROOT
BRANCH   6  13
ATOM     12  F   UNL     1      45.057  52.400  33.950  0.00  0.00    +0.000 F 
ATOM     13  C   UNL     1      42.791  50.537  36.880  0.00  0.00    +0.000 A 
ATOM     14  C   UNL     1      42.209  50.943  35.664  0.00  0.00    +0.000 A 
ATOM     15  C   UNL     1      44.167  50.783  37.072  0.00  0.00    +0.000 A 
ATOM     16  C   UNL     1      42.973  51.573  34.678  0.00  0.00    +0.000 A 
ATOM     17  C   UNL     1      44.929  51.414  36.084  0.00  0.00    +0.000 A 
ATOM     18  C   UNL     1      44.325  51.801  34.897  0.00  0.00    +0.000 A 
ENDBRANCH   6  13
BRANCH  11  22
ATOM     19  F   UNL     1      37.550  49.772  34.615  0.00  0.00    +0.000 F 
ATOM     20  F   UNL     1      36.184  50.292  36.231  0.00  0.00    +0.000 F 
ATOM     21  F   UNL     1      36.875  48.234  36.006  0.00  0.00    +0.000 F 
ATOM     22  C   UNL     1      37.277  49.535  35.928  0.00  0.00    +0.000 C 
ENDBRANCH  11  22
BRANCH  10  23
ATOM     23  C   UNL     1      43.342  50.315  41.498  0.00  0.00    +0.000 C 
BRANCH  23  24
ATOM     24  C   UNL     1      42.972  49.356  42.648  0.00  0.00    +0.000 C 
BRANCH  24  25
ATOM     25  N   UNL     1      44.159  48.508  42.899  0.00  0.00    +0.000 NA
ATOM     26  H   UNL     1      44.729  48.899  43.649  0.00  0.00    +0.000 HD
ATOM     27  H   UNL     1      44.761  48.522  42.074  0.00  0.00    +0.000 HD
ENDBRANCH  24  25
BRANCH  24  28
ATOM     28  C   UNL     1      41.732  48.483  42.316  0.00  0.00    +0.000 C 
BRANCH  28  32
ATOM     29  F   UNL     1      42.013  46.602  44.441  0.00  0.00    +0.000 F 
ATOM     30  F   UNL     1      37.579  49.760  44.591  0.00  0.00    +0.000 F 
ATOM     31  F   UNL     1      37.975  47.843  46.505  0.00  0.00    +0.000 F 
ATOM     32  C   UNL     1      40.733  48.342  43.452  0.00  0.00    +0.000 A 
ATOM     33  C   UNL     1      40.921  47.378  44.456  0.00  0.00    +0.000 A 
ATOM     34  C   UNL     1      39.586  49.148  43.512  0.00  0.00    +0.000 A 
ATOM     35  C   UNL     1      38.667  48.978  44.546  0.00  0.00    +0.000 A 
ATOM     36  C   UNL     1      40.001  47.204  45.488  0.00  0.00    +0.000 A 
ATOM     37  C   UNL     1      38.871  48.009  45.523  0.00  0.00    +0.000 A 
ENDBRANCH  28  32
ENDBRANCH  24  28
ENDBRANCH  23  24
ENDBRANCH  10  23
TORSDOF 7
ENDMDL
MODEL 3
REMARK VINA RESULT:      -8.8      3.724      9.257
REMARK  Name = 10436080
REMARK  7 active torsions:
REMARK  status: ('A' for Active; 'I' for Inactive)
REMARK    1  A    between atoms: N_13  and  C_21
REMARK    2  A    between atoms: C_14  and  C_19
REMARK    3  A    between atoms: C_18  and  C_20
REMARK    4  A    between atoms: C_20  and  C_21
REMARK    5  A    between atoms: C_21  and  C_22
REMARK    6  A    between atoms: C_22  and  C_26
REMARK    7  A    between atoms: C_23  and  C_27
REMARK                            x       y       z     vdW  Elec       q    Type
REMARK                         _______ _______ _______ _____ _____    ______ ____
ROOT
ATOM      1  O   UNL     1      51.155  69.789  38.767  0.00  0.00    +0.000 OA
ATOM      2  N   UNL     1      50.144  69.792  40.832  0.00  0.00    +0.000 N 
ATOM      3  N   UNL     1      47.947  68.803  42.163  0.00  0.00    +0.000 N 
ATOM      4  N   UNL     1      46.427  69.366  40.715  0.00  0.00    +0.000 NA
ATOM      5  N   UNL     1      46.833  68.290  42.695  0.00  0.00    +0.000 NA
ATOM      6  C   UNL     1      48.827  70.180  40.251  0.00  0.00    +0.000 C 
ATOM      7  C   UNL     1      50.201  69.697  42.298  0.00  0.00    +0.000 C 
ATOM      8  C   UNL     1      49.225  68.653  42.816  0.00  0.00    +0.000 C 
ATOM      9  C   UNL     1      47.718  69.456  40.988  0.00  0.00    +0.000 A 
ATOM     10  C   UNL     1      51.239  69.620  39.983  0.00  0.00    +0.000 C 
ATOM     11  C   UNL     1      45.896  68.646  41.785  0.00  0.00    +0.000 A 
ENDROOT
BRANCH   6  13
ATOM     12  F   UNL     1      48.089  75.812  40.333  0.00  0.00    +0.000 F 
ATOM     13  C   UNL     1      48.664  71.705  40.254  0.00  0.00    +0.000 A 
ATOM     14  C   UNL     1      48.234  72.354  41.427  0.00  0.00    +0.000 A 
ATOM     15  C   UNL     1      48.893  72.494  39.107  0.00  0.00    +0.000 A 
ATOM     16  C   UNL     1      48.042  73.738  41.454  0.00  0.00    +0.000 A 
ATOM     17  C   UNL     1      48.702  73.878  39.136  0.00  0.00    +0.000 A 
ATOM     18  C   UNL     1      48.277  74.486  40.308  0.00  0.00    +0.000 A 
ENDBRANCH   6  13
BRANCH  11  22
ATOM     19  F   UNL     1      43.611  69.391  41.770  0.00  0.00    +0.000 F 
ATOM     20  F   UNL     1      44.142  67.816  43.180  0.00  0.00    +0.000 F 
ATOM     21  F   UNL     1      44.007  67.373  41.046  0.00  0.00    +0.000 F 
ATOM     22  C   UNL     1      44.425  68.314  41.942  0.00  0.00    +0.000 C 
ENDBRANCH  11  22
BRANCH  10  23
ATOM     23  C   UNL     1      52.548  69.166  40.629  0.00  0.00    +0.000 C 
BRANCH  23  24
ATOM     24  C   UNL     1      53.612  70.266  40.813  0.00  0.00    +0.000 C 
BRANCH  24  25
ATOM     25  N   UNL     1      53.749  70.954  39.509  0.00  0.00    +0.000 NA
ATOM     26  H   UNL     1      53.725  71.967  39.633  0.00  0.00    +0.000 HD
ATOM     27  H   UNL     1      52.935  70.740  38.931  0.00  0.00    +0.000 HD
ENDBRANCH  24  25
BRANCH  24  28
ATOM     28  C   UNL     1      54.979  69.697  41.280  0.00  0.00    +0.000 C 
BRANCH  28  32
ATOM     29  F   UNL     1      57.679  70.149  40.483  0.00  0.00    +0.000 F 
ATOM     30  F   UNL     1      55.870  73.135  44.662  0.00  0.00    +0.000 F 
ATOM     31  F   UNL     1      58.461  73.378  43.811  0.00  0.00    +0.000 F 
ATOM     32  C   UNL     1      55.894  70.710  41.947  0.00  0.00    +0.000 A 
ATOM     33  C   UNL     1      57.222  70.866  41.518  0.00  0.00    +0.000 A 
ATOM     34  C   UNL     1      55.447  71.492  43.023  0.00  0.00    +0.000 A 
ATOM     35  C   UNL     1      56.315  72.392  43.640  0.00  0.00    +0.000 A 
ATOM     36  C   UNL     1      58.092  71.762  42.137  0.00  0.00    +0.000 A 
ATOM     37  C   UNL     1      57.629  72.521  43.203  0.00  0.00    +0.000 A 
ENDBRANCH  28  32
ENDBRANCH  24  28
ENDBRANCH  23  24
ENDBRANCH  10  23
TORSDOF 7
ENDMDL
MODEL 4
REMARK VINA RESULT:      -8.7      1.979      2.346
REMARK  Name = 10436080
REMARK  7 active torsions:
REMARK  status: ('A' for Active; 'I' for Inactive)
REMARK    1  A    between atoms: N_13  and  C_21
REMARK    2  A    between atoms: C_14  and  C_19
REMARK    3  A    between atoms: C_18  and  C_20
REMARK    4  A    between atoms: C_20  and  C_21
REMARK    5  A    between atoms: C_21  and  C_22
REMARK    6  A    between atoms: C_22  and  C_26
REMARK    7  A    between atoms: C_23  and  C_27
REMARK                            x       y       z     vdW  Elec       q    Type
REMARK                         _______ _______ _______ _____ _____    ______ ____
ROOT
ATOM      1  O   UNL     1      54.400  71.595  36.434  0.00  0.00    +0.000 OA
ATOM      2  N   UNL     1      55.230  70.417  38.226  0.00  0.00    +0.000 N 
ATOM      3  N   UNL     1      56.909  70.679  40.392  0.00  0.00    +0.000 N 
ATOM      4  N   UNL     1      58.614  71.543  39.360  0.00  0.00    +0.000 NA
ATOM      5  N   UNL     1      57.764  70.914  41.391  0.00  0.00    +0.000 NA
ATOM      6  C   UNL     1      56.635  70.789  37.894  0.00  0.00    +0.000 C 
ATOM      7  C   UNL     1      55.056  69.495  39.358  0.00  0.00    +0.000 C 
ATOM      8  C   UNL     1      55.612  70.095  40.641  0.00  0.00    +0.000 C 
ATOM      9  C   UNL     1      57.407  71.039  39.175  0.00  0.00    +0.000 A 
ATOM     10  C   UNL     1      54.192  70.888  37.419  0.00  0.00    +0.000 C 
ATOM     11  C   UNL     1      58.820  71.453  40.737  0.00  0.00    +0.000 A 
ENDROOT
BRANCH   6  13
ATOM     12  F   UNL     1      59.147  66.871  34.638  0.00  0.00    +0.000 F 
ATOM     13  C   UNL     1      57.278  69.726  36.995  0.00  0.00    +0.000 A 
ATOM     14  C   UNL     1      58.100  68.738  37.570  0.00  0.00    +0.000 A 
ATOM     15  C   UNL     1      57.108  69.714  35.595  0.00  0.00    +0.000 A 
ATOM     16  C   UNL     1      58.728  67.775  36.775  0.00  0.00    +0.000 A 
ATOM     17  C   UNL     1      57.736  68.750  34.802  0.00  0.00    +0.000 A 
ATOM     18  C   UNL     1      58.541  67.791  35.399  0.00  0.00    +0.000 A 
ENDBRANCH   6  13
BRANCH  11  22
ATOM     19  F   UNL     1      60.382  71.128  42.535  0.00  0.00    +0.000 F 
ATOM     20  F   UNL     1      60.033  73.173  41.869  0.00  0.00    +0.000 F 
ATOM     21  F   UNL     1      61.186  71.800  40.623  0.00  0.00    +0.000 F 
ATOM     22  C   UNL     1      60.095  71.881  41.438  0.00  0.00    +0.000 C 
ENDBRANCH  11  22
BRANCH  10  23
ATOM     23  C   UNL     1      52.770  70.522  37.843  0.00  0.00    +0.000 C 
BRANCH  23  24
ATOM     24  C   UNL     1      51.647  71.335  37.167  0.00  0.00    +0.000 C 
BRANCH  24  25
ATOM     25  N   UNL     1      51.887  72.758  37.502  0.00  0.00    +0.000 NA
ATOM     26  H   UNL     1      51.530  73.366  36.764  0.00  0.00    +0.000 HD
ATOM     27  H   UNL     1      52.893  72.931  37.524  0.00  0.00    +0.000 HD
ENDBRANCH  24  25
BRANCH  24  28
ATOM     28  C   UNL     1      50.233  70.893  37.629  0.00  0.00    +0.000 C 
BRANCH  28  32
ATOM     29  F   UNL     1      50.381  70.018  40.338  0.00  0.00    +0.000 F 
ATOM     30  F   UNL     1      47.887  74.783  39.479  0.00  0.00    +0.000 F 
ATOM     31  F   UNL     1      48.053  73.748  42.008  0.00  0.00    +0.000 F 
ATOM     32  C   UNL     1      49.672  71.683  38.799  0.00  0.00    +0.000 A 
ATOM     33  C   UNL     1      49.759  71.182  40.108  0.00  0.00    +0.000 A 
ATOM     34  C   UNL     1      49.029  72.915  38.600  0.00  0.00    +0.000 A 
ATOM     35  C   UNL     1      48.493  73.606  39.686  0.00  0.00    +0.000 A 
ATOM     36  C   UNL     1      49.220  71.870  41.194  0.00  0.00    +0.000 A 
ATOM     37  C   UNL     1      48.584  73.083  40.972  0.00  0.00    +0.000 A 
ENDBRANCH  28  32
ENDBRANCH  24  28
ENDBRANCH  23  24
ENDBRANCH  10  23
TORSDOF 7
ENDMDL
MODEL 5
REMARK VINA RESULT:      -8.2     24.940     27.855
REMARK  Name = 10436080
REMARK  7 active torsions:
REMARK  status: ('A' for Active; 'I' for Inactive)
REMARK    1  A    between atoms: N_13  and  C_21
REMARK    2  A    between atoms: C_14  and  C_19
REMARK    3  A    between atoms: C_18  and  C_20
REMARK    4  A    between atoms: C_20  and  C_21
REMARK    5  A    between atoms: C_21  and  C_22
REMARK    6  A    between atoms: C_22  and  C_26
REMARK    7  A    between atoms: C_23  and  C_27
REMARK                            x       y       z     vdW  Elec       q    Type
REMARK                         _______ _______ _______ _____ _____    ______ ____
ROOT
ATOM      1  O   UNL     1      38.306  51.109  46.675  0.00  0.00    +0.000 OA
ATOM      2  N   UNL     1      36.555  51.850  45.382  0.00  0.00    +0.000 N 
ATOM      3  N   UNL     1      35.951  53.660  43.398  0.00  0.00    +0.000 N 
ATOM      4  N   UNL     1      36.864  55.417  44.292  0.00  0.00    +0.000 NA
ATOM      5  N   UNL     1      35.770  54.592  42.458  0.00  0.00    +0.000 NA
ATOM      6  C   UNL     1      36.832  53.275  45.722  0.00  0.00    +0.000 C 
ATOM      7  C   UNL     1      35.368  51.603  44.551  0.00  0.00    +0.000 C 
ATOM      8  C   UNL     1      35.485  52.307  43.208  0.00  0.00    +0.000 C 
ATOM      9  C   UNL     1      36.592  54.141  44.501  0.00  0.00    +0.000 A 
ATOM     10  C   UNL     1      37.370  50.851  45.920  0.00  0.00    +0.000 C 
ATOM     11  C   UNL     1      36.344  55.679  43.025  0.00  0.00    +0.000 A 
ENDROOT
BRANCH   6  13
ATOM     12  F   UNL     1      33.746  54.997  50.169  0.00  0.00    +0.000 F 
ATOM     13  C   UNL     1      36.013  53.708  46.945  0.00  0.00    +0.000 A 
ATOM     14  C   UNL     1      34.675  54.113  46.773  0.00  0.00    +0.000 A 
ATOM     15  C   UNL     1      36.558  53.753  48.245  0.00  0.00    +0.000 A 
ATOM     16  C   UNL     1      33.912  54.546  47.861  0.00  0.00    +0.000 A 
ATOM     17  C   UNL     1      35.792  54.185  49.331  0.00  0.00    +0.000 A 
ATOM     18  C   UNL     1      34.477  54.578  49.129  0.00  0.00    +0.000 A 
ENDBRANCH   6  13
BRANCH  11  22
ATOM     19  F   UNL     1      35.605  57.967  42.974  0.00  0.00    +0.000 F 
ATOM     20  F   UNL     1      35.947  56.982  41.060  0.00  0.00    +0.000 F 
ATOM     21  F   UNL     1      37.641  57.560  42.309  0.00  0.00    +0.000 F 
ATOM     22  C   UNL     1      36.382  57.038  42.352  0.00  0.00    +0.000 C 
ENDBRANCH  11  22
BRANCH  10  23
ATOM     23  C   UNL     1      37.074  49.415  45.489  0.00  0.00    +0.000 C 
BRANCH  23  24
ATOM     24  C   UNL     1      36.779  48.427  46.636  0.00  0.00    +0.000 C 
BRANCH  24  25
ATOM     25  N   UNL     1      36.836  47.066  46.056  0.00  0.00    +0.000 NA
ATOM     26  H   UNL     1      37.145  46.390  46.756  0.00  0.00    +0.000 HD
ATOM     27  H   UNL     1      37.554  47.042  45.330  0.00  0.00    +0.000 HD
ENDBRANCH  24  25
BRANCH  24  28
ATOM     28  C   UNL     1      35.399  48.684  47.299  0.00  0.00    +0.000 C 
BRANCH  28  32
ATOM     29  F   UNL     1      34.338  51.170  48.205  0.00  0.00    +0.000 F 
ATOM     30  F   UNL     1      36.732  48.056  51.977  0.00  0.00    +0.000 F 
ATOM     31  F   UNL     1      35.727  50.512  52.650  0.00  0.00    +0.000 F 
ATOM     32  C   UNL     1      35.465  49.150  48.743  0.00  0.00    +0.000 A 
ATOM     33  C   UNL     1      34.942  50.398  49.118  0.00  0.00    +0.000 A 
ATOM     34  C   UNL     1      36.075  48.361  49.732  0.00  0.00    +0.000 A 
ATOM     35  C   UNL     1      36.152  48.824  51.045  0.00  0.00    +0.000 A 
ATOM     36  C   UNL     1      35.023  50.863  50.429  0.00  0.00    +0.000 A 
ATOM     37  C   UNL     1      35.635  50.069  51.388  0.00  0.00    +0.000 A 
ENDBRANCH  28  32
ENDBRANCH  24  28
ENDBRANCH  23  24
ENDBRANCH  10  23
TORSDOF 7
ENDMDL
MODEL 6
REMARK VINA RESULT:      -7.9     21.968     25.780
REMARK  Name = 10436080
REMARK  7 active torsions:
REMARK  status: ('A' for Active; 'I' for Inactive)
REMARK    1  A    between atoms: N_13  and  C_21
REMARK    2  A    between atoms: C_14  and  C_19
REMARK    3  A    between atoms: C_18  and  C_20
REMARK    4  A    between atoms: C_20  and  C_21
REMARK    5  A    between atoms: C_21  and  C_22
REMARK    6  A    between atoms: C_22  and  C_26
REMARK    7  A    between atoms: C_23  and  C_27
REMARK                            x       y       z     vdW  Elec       q    Type
REMARK                         _______ _______ _______ _____ _____    ______ ____
ROOT
ATOM      1  O   UNL     1      29.005  63.502  40.623  0.00  0.00    +0.000 OA
ATOM      2  N   UNL     1      29.026  65.719  40.011  0.00  0.00    +0.000 N 
ATOM      3  N   UNL     1      30.630  67.956  40.054  0.00  0.00    +0.000 N 
ATOM      4  N   UNL     1      31.224  67.872  42.142  0.00  0.00    +0.000 NA
ATOM      5  N   UNL     1      31.483  68.979  40.155  0.00  0.00    +0.000 NA
ATOM      6  C   UNL     1      29.474  66.149  41.367  0.00  0.00    +0.000 C 
ATOM      7  C   UNL     1      28.746  66.797  39.051  0.00  0.00    +0.000 C 
ATOM      8  C   UNL     1      29.984  67.642  38.801  0.00  0.00    +0.000 C 
ATOM      9  C   UNL     1      30.457  67.294  41.234  0.00  0.00    +0.000 A 
ATOM     10  C   UNL     1      28.830  64.360  39.758  0.00  0.00    +0.000 C 
ATOM     11  C   UNL     1      31.847  68.915  41.458  0.00  0.00    +0.000 A 
ENDROOT
BRANCH   6  13
ATOM     12  F   UNL     1      24.984  67.517  44.567  0.00  0.00    +0.000 F 
ATOM     13  C   UNL     1      28.267  66.484  42.253  0.00  0.00    +0.000 A 
ATOM     14  C   UNL     1      27.080  66.952  41.657  0.00  0.00    +0.000 A 
ATOM     15  C   UNL     1      28.306  66.376  43.658  0.00  0.00    +0.000 A 
ATOM     16  C   UNL     1      25.974  67.298  42.437  0.00  0.00    +0.000 A 
ATOM     17  C   UNL     1      27.197  66.722  44.437  0.00  0.00    +0.000 A 
ATOM     18  C   UNL     1      26.043  67.181  43.819  0.00  0.00    +0.000 A 
ENDBRANCH   6  13
BRANCH  11  22
ATOM     19  F   UNL     1      32.313  70.479  43.223  0.00  0.00    +0.000 F 
ATOM     20  F   UNL     1      33.130  70.921  41.252  0.00  0.00    +0.000 F 
ATOM     21  F   UNL     1      33.988  69.313  42.454  0.00  0.00    +0.000 F 
ATOM     22  C   UNL     1      32.809  69.899  42.096  0.00  0.00    +0.000 C 
ENDBRANCH  11  22
BRANCH  10  23
ATOM     23  C   UNL     1      28.429  63.975  38.334  0.00  0.00    +0.000 C 
BRANCH  23  24
ATOM     24  C   UNL     1      29.500  63.211  37.528  0.00  0.00    +0.000 C 
BRANCH  24  25
ATOM     25  N   UNL     1      30.818  63.661  38.031  0.00  0.00    +0.000 NA
ATOM     26  H   UNL     1      31.527  62.945  37.872  0.00  0.00    +0.000 HD
ATOM     27  H   UNL     1      30.771  63.765  39.046  0.00  0.00    +0.000 HD
ENDBRANCH  24  25
BRANCH  24  28
ATOM     28  C   UNL     1      29.381  63.459  36.000  0.00  0.00    +0.000 C 
BRANCH  28  32
ATOM     29  F   UNL     1      26.794  64.394  35.252  0.00  0.00    +0.000 F 
ATOM     30  F   UNL     1      30.797  68.086  35.199  0.00  0.00    +0.000 F 
ATOM     31  F   UNL     1      28.263  68.786  34.433  0.00  0.00    +0.000 F 
ATOM     32  C   UNL     1      29.088  64.898  35.612  0.00  0.00    +0.000 A 
ATOM     33  C   UNL     1      27.793  65.287  35.231  0.00  0.00    +0.000 A 
ATOM     34  C   UNL     1      30.104  65.866  35.595  0.00  0.00    +0.000 A 
ATOM     35  C   UNL     1      29.816  67.173  35.204  0.00  0.00    +0.000 A 
ATOM     36  C   UNL     1      27.505  66.592  34.836  0.00  0.00    +0.000 A 
ATOM     37  C   UNL     1      28.527  67.531  34.822  0.00  0.00    +0.000 A 
ENDBRANCH  28  32
ENDBRANCH  24  28
ENDBRANCH  23  24
ENDBRANCH  10  23
TORSDOF 7
ENDMDL
MODEL 7
REMARK VINA RESULT:      -7.6     21.466     25.367
REMARK  Name = 10436080
REMARK  7 active torsions:
REMARK  status: ('A' for Active; 'I' for Inactive)
REMARK    1  A    between atoms: N_13  and  C_21
REMARK    2  A    between atoms: C_14  and  C_19
REMARK    3  A    between atoms: C_18  and  C_20
REMARK    4  A    between atoms: C_20  and  C_21
REMARK    5  A    between atoms: C_21  and  C_22
REMARK    6  A    between atoms: C_22  and  C_26
REMARK    7  A    between atoms: C_23  and  C_27
REMARK                            x       y       z     vdW  Elec       q    Type
REMARK                         _______ _______ _______ _____ _____    ______ ____
ROOT
ATOM      1  O   UNL     1      32.006  67.322  39.837  0.00  0.00    +0.000 OA
ATOM      2  N   UNL     1      30.961  65.820  41.229  0.00  0.00    +0.000 N 
ATOM      3  N   UNL     1      28.679  65.496  42.735  0.00  0.00    +0.000 N 
ATOM      4  N   UNL     1      28.727  67.399  43.783  0.00  0.00    +0.000 NA
ATOM      5  N   UNL     1      27.551  65.463  43.450  0.00  0.00    +0.000 NA
ATOM      6  C   UNL     1      30.747  66.854  42.281  0.00  0.00    +0.000 C 
ATOM      7  C   UNL     1      30.538  64.453  41.571  0.00  0.00    +0.000 C 
ATOM      8  C   UNL     1      29.048  64.401  41.870  0.00  0.00    +0.000 C 
ATOM      9  C   UNL     1      29.396  66.640  42.933  0.00  0.00    +0.000 A 
ATOM     10  C   UNL     1      31.601  66.178  40.041  0.00  0.00    +0.000 C 
ATOM     11  C   UNL     1      27.591  66.653  44.095  0.00  0.00    +0.000 A 
ENDROOT
BRANCH   6  13
ATOM     12  F   UNL     1      35.154  66.855  45.866  0.00  0.00    +0.000 F 
ATOM     13  C   UNL     1      31.911  66.854  43.281  0.00  0.00    +0.000 A 
ATOM     14  C   UNL     1      33.007  67.711  43.066  0.00  0.00    +0.000 A 
ATOM     15  C   UNL     1      31.948  65.998  44.401  0.00  0.00    +0.000 A 
ATOM     16  C   UNL     1      34.099  67.712  43.939  0.00  0.00    +0.000 A 
ATOM     17  C   UNL     1      33.040  66.001  45.273  0.00  0.00    +0.000 A 
ATOM     18  C   UNL     1      34.105  66.857  45.033  0.00  0.00    +0.000 A 
ENDBRANCH   6  13
BRANCH  11  22
ATOM     19  F   UNL     1      26.079  66.093  45.879  0.00  0.00    +0.000 F 
ATOM     20  F   UNL     1      25.419  67.589  44.438  0.00  0.00    +0.000 F 
ATOM     21  F   UNL     1      26.958  68.089  45.904  0.00  0.00    +0.000 F 
ATOM     22  C   UNL     1      26.521  67.098  45.074  0.00  0.00    +0.000 C 
ENDBRANCH  11  22
BRANCH  10  23
ATOM     23  C   UNL     1      31.738  65.090  38.976  0.00  0.00    +0.000 C 
BRANCH  23  24
ATOM     24  C   UNL     1      30.880  65.291  37.710  0.00  0.00    +0.000 C 
BRANCH  24  25
ATOM     25  N   UNL     1      31.434  66.465  36.998  0.00  0.00    +0.000 NA
ATOM     26  H   UNL     1      30.872  66.685  36.175  0.00  0.00    +0.000 HD
ATOM     27  H   UNL     1      32.358  66.230  36.633  0.00  0.00    +0.000 HD
ENDBRANCH  24  25
BRANCH  24  28
ATOM     28  C   UNL     1      29.378  65.507  38.039  0.00  0.00    +0.000 C 
BRANCH  28  32
ATOM     29  F   UNL     1      28.527  64.196  35.655  0.00  0.00    +0.000 F 
ATOM     30  F   UNL     1      27.166  69.447  36.133  0.00  0.00    +0.000 F 
ATOM     31  F   UNL     1      26.502  68.049  33.875  0.00  0.00    +0.000 F 
ATOM     32  C   UNL     1      28.580  66.191  36.943  0.00  0.00    +0.000 A 
ATOM     33  C   UNL     1      28.212  65.492  35.782  0.00  0.00    +0.000 A 
ATOM     34  C   UNL     1      28.216  67.543  37.048  0.00  0.00    +0.000 A 
ATOM     35  C   UNL     1      27.510  68.158  36.015  0.00  0.00    +0.000 A 
ATOM     36  C   UNL     1      27.511  66.107  34.747  0.00  0.00    +0.000 A 
ATOM     37  C   UNL     1      27.167  67.446  34.870  0.00  0.00    +0.000 A 
ENDBRANCH  28  32
ENDBRANCH  24  28
ENDBRANCH  23  24
ENDBRANCH  10  23
TORSDOF 7
ENDMDL
MODEL 8
REMARK VINA RESULT:      -7.6     25.411     28.033
REMARK  Name = 10436080
REMARK  7 active torsions:
REMARK  status: ('A' for Active; 'I' for Inactive)
REMARK    1  A    between atoms: N_13  and  C_21
REMARK    2  A    between atoms: C_14  and  C_19
REMARK    3  A    between atoms: C_18  and  C_20
REMARK    4  A    between atoms: C_20  and  C_21
REMARK    5  A    between atoms: C_21  and  C_22
REMARK    6  A    between atoms: C_22  and  C_26
REMARK    7  A    between atoms: C_23  and  C_27
REMARK                            x       y       z     vdW  Elec       q    Type
REMARK                         _______ _______ _______ _____ _____    ______ ____
ROOT
ATOM      1  O   UNL     1      37.860  50.324  51.970  0.00  0.00    +0.000 OA
ATOM      2  N   UNL     1      37.792  51.518  50.006  0.00  0.00    +0.000 N 
ATOM      3  N   UNL     1      36.637  53.742  48.869  0.00  0.00    +0.000 N 
ATOM      4  N   UNL     1      34.577  53.348  49.439  0.00  0.00    +0.000 NA
ATOM      5  N   UNL     1      35.997  54.825  48.417  0.00  0.00    +0.000 NA
ATOM      6  C   UNL     1      36.302  51.515  49.988  0.00  0.00    +0.000 C 
ATOM      7  C   UNL     1      38.452  52.128  48.842  0.00  0.00    +0.000 C 
ATOM      8  C   UNL     1      38.063  53.591  48.699  0.00  0.00    +0.000 C 
ATOM      9  C   UNL     1      35.801  52.849  49.471  0.00  0.00    +0.000 A 
ATOM     10  C   UNL     1      38.462  50.890  51.059  0.00  0.00    +0.000 C 
ATOM     11  C   UNL     1      34.718  54.568  48.779  0.00  0.00    +0.000 A 
ENDROOT
BRANCH   6  13
ATOM     12  F   UNL     1      34.216  47.153  47.006  0.00  0.00    +0.000 F 
ATOM     13  C   UNL     1      35.774  50.316  49.189  0.00  0.00    +0.000 A 
ATOM     14  C   UNL     1      35.109  50.537  47.967  0.00  0.00    +0.000 A 
ATOM     15  C   UNL     1      35.895  48.988  49.647  0.00  0.00    +0.000 A 
ATOM     16  C   UNL     1      34.586  49.471  47.232  0.00  0.00    +0.000 A 
ATOM     17  C   UNL     1      35.372  47.922  48.909  0.00  0.00    +0.000 A 
ATOM     18  C   UNL     1      34.722  48.174  47.710  0.00  0.00    +0.000 A 
ENDBRANCH   6  13
BRANCH  11  22
ATOM     19  F   UNL     1      33.184  55.467  47.160  0.00  0.00    +0.000 F 
ATOM     20  F   UNL     1      33.880  56.806  48.732  0.00  0.00    +0.000 F 
ATOM     21  F   UNL     1      32.454  55.222  49.200  0.00  0.00    +0.000 F 
ATOM     22  C   UNL     1      33.568  55.506  48.466  0.00  0.00    +0.000 C 
ENDBRANCH  11  22
BRANCH  10  23
ATOM     23  C   UNL     1      39.988  50.977  51.054  0.00  0.00    +0.000 C 
BRANCH  23  24
ATOM     24  C   UNL     1      40.578  52.286  51.617  0.00  0.00    +0.000 C 
BRANCH  24  25
ATOM     25  N   UNL     1      42.017  52.293  51.270  0.00  0.00    +0.000 NA
ATOM     26  H   UNL     1      42.477  51.452  51.621  0.00  0.00    +0.000 HD
ATOM     27  H   UNL     1      42.475  53.066  51.754  0.00  0.00    +0.000 HD
ENDBRANCH  24  25
BRANCH  24  28
ATOM     28  C   UNL     1      40.383  52.412  53.152  0.00  0.00    +0.000 C 
BRANCH  28  32
ATOM     29  F   UNL     1      37.728  53.432  52.953  0.00  0.00    +0.000 F 
ATOM     30  F   UNL     1      41.429  56.767  55.153  0.00  0.00    +0.000 F 
ATOM     31  F   UNL     1      38.846  57.605  54.809  0.00  0.00    +0.000 F 
ATOM     32  C   UNL     1      39.976  53.796  53.629  0.00  0.00    +0.000 A 
ATOM     33  C   UNL     1      38.654  54.244  53.480  0.00  0.00    +0.000 A 
ATOM     34  C   UNL     1      40.914  54.670  54.202  0.00  0.00    +0.000 A 
ATOM     35  C   UNL     1      40.523  55.947  54.603  0.00  0.00    +0.000 A 
ATOM     36  C   UNL     1      38.264  55.522  53.876  0.00  0.00    +0.000 A 
ATOM     37  C   UNL     1      39.209  56.371  54.435  0.00  0.00    +0.000 A 
ENDBRANCH  28  32
ENDBRANCH  24  28
ENDBRANCH  23  24
ENDBRANCH  10  23
TORSDOF 7
ENDMDL
MODEL 9
REMARK VINA RESULT:      -7.4     24.958     27.866
REMARK  Name = 10436080
REMARK  7 active torsions:
REMARK  status: ('A' for Active; 'I' for Inactive)
REMARK    1  A    between atoms: N_13  and  C_21
REMARK    2  A    between atoms: C_14  and  C_19
REMARK    3  A    between atoms: C_18  and  C_20
REMARK    4  A    between atoms: C_20  and  C_21
REMARK    5  A    between atoms: C_21  and  C_22
REMARK    6  A    between atoms: C_22  and  C_26
REMARK    7  A    between atoms: C_23  and  C_27
REMARK                            x       y       z     vdW  Elec       q    Type
REMARK                         _______ _______ _______ _____ _____    ______ ____
ROOT
ATOM      1  O   UNL     1      37.589  50.162  51.902  0.00  0.00    +0.000 OA
ATOM      2  N   UNL     1      37.769  51.497  50.039  0.00  0.00    +0.000 N 
ATOM      3  N   UNL     1      36.701  53.761  48.892  0.00  0.00    +0.000 N 
ATOM      4  N   UNL     1      34.599  53.254  49.105  0.00  0.00    +0.000 NA
ATOM      5  N   UNL     1      36.090  54.852  48.421  0.00  0.00    +0.000 NA
ATOM      6  C   UNL     1      36.300  51.445  49.788  0.00  0.00    +0.000 C 
ATOM      7  C   UNL     1      38.571  52.217  49.037  0.00  0.00    +0.000 C 
ATOM      8  C   UNL     1      38.142  53.672  48.937  0.00  0.00    +0.000 C 
ATOM      9  C   UNL     1      35.825  52.796  49.292  0.00  0.00    +0.000 A 
ATOM     10  C   UNL     1      38.297  50.816  51.137  0.00  0.00    +0.000 C 
ATOM     11  C   UNL     1      34.784  54.525  48.561  0.00  0.00    +0.000 A 
ENDROOT
BRANCH   6  13
ATOM     12  F   UNL     1      34.927  47.271  46.188  0.00  0.00    +0.000 F 
ATOM     13  C   UNL     1      35.956  50.293  48.835  0.00  0.00    +0.000 A 
ATOM     14  C   UNL     1      35.857  50.544  47.453  0.00  0.00    +0.000 A 
ATOM     15  C   UNL     1      35.697  48.984  49.292  0.00  0.00    +0.000 A 
ATOM     16  C   UNL     1      35.511  49.524  46.562  0.00  0.00    +0.000 A 
ATOM     17  C   UNL     1      35.353  47.966  48.398  0.00  0.00    +0.000 A 
ATOM     18  C   UNL     1      35.262  48.246  47.043  0.00  0.00    +0.000 A 
ENDBRANCH   6  13
BRANCH  11  22
ATOM     19  F   UNL     1      33.967  56.764  48.244  0.00  0.00    +0.000 F 
ATOM     20  F   UNL     1      32.532  55.257  48.892  0.00  0.00    +0.000 F 
ATOM     21  F   UNL     1      33.280  55.242  46.841  0.00  0.00    +0.000 F 
ATOM     22  C   UNL     1      33.653  55.444  48.138  0.00  0.00    +0.000 C 
ENDBRANCH  11  22
BRANCH  10  23
ATOM     23  C   UNL     1      39.800  50.955  51.377  0.00  0.00    +0.000 C 
BRANCH  23  24
ATOM     24  C   UNL     1      40.218  52.110  52.310  0.00  0.00    +0.000 C 
BRANCH  24  25
ATOM     25  N   UNL     1      38.972  52.784  52.743  0.00  0.00    +0.000 NA
ATOM     26  H   UNL     1      38.417  52.167  53.336  0.00  0.00    +0.000 HD
ATOM     27  H   UNL     1      38.386  52.961  51.925  0.00  0.00    +0.000 HD
ENDBRANCH  24  25
BRANCH  24  28
ATOM     28  C   UNL     1      41.175  53.116  51.617  0.00  0.00    +0.000 C 
BRANCH  28  32
ATOM     29  F   UNL     1      43.443  52.227  50.137  0.00  0.00    +0.000 F 
ATOM     30  F   UNL     1      44.410  53.989  55.199  0.00  0.00    +0.000 F 
ATOM     31  F   UNL     1      46.457  53.023  53.659  0.00  0.00    +0.000 F 
ATOM     32  C   UNL     1      42.591  53.125  52.165  0.00  0.00    +0.000 A 
ATOM     33  C   UNL     1      43.662  52.651  51.389  0.00  0.00    +0.000 A 
ATOM     34  C   UNL     1      42.863  53.579  53.465  0.00  0.00    +0.000 A 
ATOM     35  C   UNL     1      44.167  53.547  53.957  0.00  0.00    +0.000 A 
ATOM     36  C   UNL     1      44.965  52.615  51.881  0.00  0.00    +0.000 A 
ATOM     37  C   UNL     1      45.209  53.063  53.172  0.00  0.00    +0.000 A 
ENDBRANCH  28  32
ENDBRANCH  24  28
ENDBRANCH  23  24
ENDBRANCH  10  23
TORSDOF 7
ENDMDL
