MODEL 1
REMARK VINA RESULT:      -8.2      0.000      0.000
REMARK  Name = 24776592
REMARK  8 active torsions:
REMARK  status: ('A' for Active; 'I' for Inactive)
REMARK    1  A    between atoms: N_12  and  C_21
REMARK    2  A    between atoms: C_13  and  C_17
REMARK    3  A    between atoms: C_17  and  C_22
REMARK    4  A    between atoms: C_18  and  C_19
REMARK    5  A    between atoms: C_19  and  C_21
REMARK    6  A    between atoms: C_20  and  C_24
REMARK    7  A    between atoms: C_21  and  C_23
REMARK    8  A    between atoms: C_23  and  C_27
REMARK                            x       y       z     vdW  Elec       q    Type
REMARK                         _______ _______ _______ _____ _____    ______ ____
ROOT
ATOM      1  O   UNL     1      28.128  63.743  36.012  0.00  0.00    +0.000 OA
ATOM      2  N   UNL     1      29.718  65.371  35.676  0.00  0.00    +0.000 N 
ATOM      3  N   UNL     1      30.792  67.724  34.592  0.00  0.00    +0.000 N 
ATOM      4  N   UNL     1      29.453  67.869  32.883  0.00  0.00    +0.000 NA
ATOM      5  N   UNL     1      30.246  68.997  32.922  0.00  0.00    +0.000 NA
ATOM      6  C   UNL     1      29.005  65.916  34.471  0.00  0.00    +0.000 C 
ATOM      7  C   UNL     1      31.163  65.637  35.735  0.00  0.00    +0.000 C 
ATOM      8  C   UNL     1      29.739  67.134  33.940  0.00  0.00    +0.000 A 
ATOM      9  C   UNL     1      31.443  67.127  35.729  0.00  0.00    +0.000 C 
ATOM     10  C   UNL     1      29.175  64.287  36.360  0.00  0.00    +0.000 C 
ATOM     11  C   UNL     1      31.035  68.923  33.979  0.00  0.00    +0.000 A 
ENDROOT
BRANCH  11  15
ATOM     12  F   UNL     1      31.772  70.325  35.746  0.00  0.00    +0.000 F 
ATOM     13  F   UNL     1      31.988  71.075  33.722  0.00  0.00    +0.000 F 
ATOM     14  F   UNL     1      33.285  69.470  34.444  0.00  0.00    +0.000 F 
ATOM     15  C   UNL     1      32.011  69.937  34.462  0.00  0.00    +0.000 C 
ENDBRANCH  11  15
BRANCH   6  16
ATOM     16  C   UNL     1      27.486  66.259  34.651  0.00  0.00    +0.000 C 
BRANCH  16  17
ATOM     17  C   UNL     1      27.158  67.601  35.271  0.00  0.00    +0.000 A 
ATOM     18  C   UNL     1      26.230  68.464  34.680  0.00  0.00    +0.000 A 
ATOM     19  C   UNL     1      27.757  67.999  36.470  0.00  0.00    +0.000 A 
ATOM     20  C   UNL     1      26.014  69.750  35.176  0.00  0.00    +0.000 A 
ATOM     21  C   UNL     1      27.518  69.275  36.995  0.00  0.00    +0.000 A 
ATOM     22  C   UNL     1      26.672  70.162  36.333  0.00  0.00    +0.000 A 
ENDBRANCH  16  17
ENDBRANCH   6  16
BRANCH  10  23
ATOM     23  C   UNL     1      29.890  63.787  37.616  0.00  0.00    +0.000 C 
BRANCH  23  24
ATOM     24  C   UNL     1      29.151  64.157  38.914  0.00  0.00    +0.000 C 
BRANCH  24  25
ATOM     25  N   UNL     1      28.101  63.161  39.185  0.00  0.00    +0.000 NA
ATOM     26  H   UNL     1      27.184  63.612  39.174  0.00  0.00    +0.000 HD
ATOM     27  H   UNL     1      28.210  62.815  40.141  0.00  0.00    +0.000 HD
ENDBRANCH  24  25
BRANCH  24  28
ATOM     28  C   UNL     1      28.589  65.587  38.829  0.00  0.00    +0.000 C 
BRANCH  28  32
ATOM     29  F   UNL     1      27.495  66.249  41.380  0.00  0.00    +0.000 F 
ATOM     30  F   UNL     1      32.155  68.698  39.986  0.00  0.00    +0.000 F 
ATOM     31  F   UNL     1      31.014  69.185  42.429  0.00  0.00    +0.000 F 
ATOM     32  C   UNL     1      29.209  66.582  39.773  0.00  0.00    +0.000 A 
ATOM     33  C   UNL     1      28.637  66.849  41.026  0.00  0.00    +0.000 A 
ATOM     34  C   UNL     1      30.411  67.222  39.430  0.00  0.00    +0.000 A 
ATOM     35  C   UNL     1      31.007  68.098  40.327  0.00  0.00    +0.000 A 
ATOM     36  C   UNL     1      29.238  67.724  41.926  0.00  0.00    +0.000 A 
ATOM     37  C   UNL     1      30.426  68.344  41.567  0.00  0.00    +0.000 A 
ENDBRANCH  28  32
ENDBRANCH  24  28
ENDBRANCH  23  24
ENDBRANCH  10  23
TORSDOF 8
ENDMDL
MODEL 2
REMARK VINA RESULT:      -8.1     18.899     21.571
REMARK  Name = 24776592
REMARK  8 active torsions:
REMARK  status: ('A' for Active; 'I' for Inactive)
REMARK    1  A    between atoms: N_12  and  C_21
REMARK    2  A    between atoms: C_13  and  C_17
REMARK    3  A    between atoms: C_17  and  C_22
REMARK    4  A    between atoms: C_18  and  C_19
REMARK    5  A    between atoms: C_19  and  C_21
REMARK    6  A    between atoms: C_20  and  C_24
REMARK    7  A    between atoms: C_21  and  C_23
REMARK    8  A    between atoms: C_23  and  C_27
REMARK                            x       y       z     vdW  Elec       q    Type
REMARK                         _______ _______ _______ _____ _____    ______ ____
ROOT
ATOM      1  O   UNL     1      40.918  51.606  38.057  0.00  0.00    +0.000 OA
ATOM      2  N   UNL     1      42.744  51.764  36.666  0.00  0.00    +0.000 N 
ATOM      3  N   UNL     1      45.373  52.427  35.949  0.00  0.00    +0.000 N 
ATOM      4  N   UNL     1      45.720  53.890  37.522  0.00  0.00    +0.000 NA
ATOM      5  N   UNL     1      46.895  53.699  36.825  0.00  0.00    +0.000 NA
ATOM      6  C   UNL     1      43.445  52.727  37.583  0.00  0.00    +0.000 C 
ATOM      7  C   UNL     1      43.148  51.822  35.254  0.00  0.00    +0.000 C 
ATOM      8  C   UNL     1      44.819  53.062  37.031  0.00  0.00    +0.000 A 
ATOM      9  C   UNL     1      44.628  51.534  35.099  0.00  0.00    +0.000 C 
ATOM     10  C   UNL     1      41.489  51.275  37.019  0.00  0.00    +0.000 C 
ATOM     11  C   UNL     1      46.691  52.786  35.892  0.00  0.00    +0.000 A 
ENDROOT
BRANCH  11  15
ATOM     12  F   UNL     1      47.240  52.218  33.655  0.00  0.00    +0.000 F 
ATOM     13  F   UNL     1      47.985  50.919  35.224  0.00  0.00    +0.000 F 
ATOM     14  F   UNL     1      48.849  52.907  34.940  0.00  0.00    +0.000 F 
ATOM     15  C   UNL     1      47.683  52.213  34.942  0.00  0.00    +0.000 C 
ENDBRANCH  11  15
BRANCH   6  16
ATOM     16  C   UNL     1      43.575  52.296  39.084  0.00  0.00    +0.000 C 
BRANCH  16  17
ATOM     17  C   UNL     1      44.208  50.947  39.355  0.00  0.00    +0.000 A 
ATOM     18  C   UNL     1      43.431  49.842  39.719  0.00  0.00    +0.000 A 
ATOM     19  C   UNL     1      45.588  50.765  39.222  0.00  0.00    +0.000 A 
ATOM     20  C   UNL     1      44.016  48.632  40.090  0.00  0.00    +0.000 A 
ATOM     21  C   UNL     1      46.180  49.542  39.557  0.00  0.00    +0.000 A 
ATOM     22  C   UNL     1      45.399  48.485  40.020  0.00  0.00    +0.000 A 
ENDBRANCH  16  17
ENDBRANCH   6  16
BRANCH  10  23
ATOM     23  C   UNL     1      40.821  50.254  36.097  0.00  0.00    +0.000 C 
BRANCH  23  24
ATOM     24  C   UNL     1      39.388  50.651  35.701  0.00  0.00    +0.000 C 
BRANCH  24  25
ATOM     25  N   UNL     1      39.408  51.958  35.023  0.00  0.00    +0.000 NA
ATOM     26  H   UNL     1      38.965  52.663  35.616  0.00  0.00    +0.000 HD
ATOM     27  H   UNL     1      38.817  51.910  34.190  0.00  0.00    +0.000 HD
ENDBRANCH  24  25
BRANCH  24  28
ATOM     28  C   UNL     1      38.465  50.648  36.932  0.00  0.00    +0.000 C 
BRANCH  28  32
ATOM     29  F   UNL     1      36.074  51.966  37.763  0.00  0.00    +0.000 F 
ATOM     30  F   UNL     1      35.491  47.251  35.100  0.00  0.00    +0.000 F 
ATOM     31  F   UNL     1      33.287  48.664  35.908  0.00  0.00    +0.000 F 
ATOM     32  C   UNL     1      37.083  50.098  36.701  0.00  0.00    +0.000 A 
ATOM     33  C   UNL     1      35.942  50.804  37.112  0.00  0.00    +0.000 A 
ATOM     34  C   UNL     1      36.914  48.885  36.015  0.00  0.00    +0.000 A 
ATOM     35  C   UNL     1      35.635  48.409  35.758  0.00  0.00    +0.000 A 
ATOM     36  C   UNL     1      34.660  50.329  36.850  0.00  0.00    +0.000 A 
ATOM     37  C   UNL     1      34.517  49.128  36.169  0.00  0.00    +0.000 A 
ENDBRANCH  28  32
ENDBRANCH  24  28
ENDBRANCH  23  24
ENDBRANCH  10  23
TORSDOF 8
ENDMDL
MODEL 3
REMARK VINA RESULT:      -8.0     24.079     26.522
REMARK  Name = 24776592
REMARK  8 active torsions:
REMARK  status: ('A' for Active; 'I' for Inactive)
REMARK    1  A    between atoms: N_12  and  C_21
REMARK    2  A    between atoms: C_13  and  C_17
REMARK    3  A    between atoms: C_17  and  C_22
REMARK    4  A    between atoms: C_18  and  C_19
REMARK    5  A    between atoms: C_19  and  C_21
REMARK    6  A    between atoms: C_20  and  C_24
REMARK    7  A    between atoms: C_21  and  C_23
REMARK    8  A    between atoms: C_23  and  C_27
REMARK                            x       y       z     vdW  Elec       q    Type
REMARK                         _______ _______ _______ _____ _____    ______ ____
ROOT
ATOM      1  O   UNL     1      54.603  70.083  36.271  0.00  0.00    +0.000 OA
ATOM      2  N   UNL     1      55.812  70.518  38.180  0.00  0.00    +0.000 N 
ATOM      3  N   UNL     1      58.114  70.716  39.770  0.00  0.00    +0.000 N 
ATOM      4  N   UNL     1      59.381  69.415  38.572  0.00  0.00    +0.000 NA
ATOM      5  N   UNL     1      60.141  69.970  39.580  0.00  0.00    +0.000 NA
ATOM      6  C   UNL     1      57.028  69.811  37.653  0.00  0.00    +0.000 C 
ATOM      7  C   UNL     1      55.711  70.607  39.644  0.00  0.00    +0.000 C 
ATOM      8  C   UNL     1      58.168  69.927  38.649  0.00  0.00    +0.000 A 
ATOM      9  C   UNL     1      56.900  71.343  40.228  0.00  0.00    +0.000 C 
ATOM     10  C   UNL     1      54.667  70.588  37.391  0.00  0.00    +0.000 C 
ATOM     11  C   UNL     1      59.378  70.786  40.286  0.00  0.00    +0.000 A 
ENDROOT
BRANCH  11  15
ATOM     12  F   UNL     1      59.235  71.245  42.609  0.00  0.00    +0.000 F 
ATOM     13  F   UNL     1      59.388  72.941  41.266  0.00  0.00    +0.000 F 
ATOM     14  F   UNL     1      61.122  71.658  41.618  0.00  0.00    +0.000 F 
ATOM     15  C   UNL     1      59.779  71.651  41.429  0.00  0.00    +0.000 C 
ENDBRANCH  11  15
BRANCH   6  16
ATOM     16  C   UNL     1      57.530  70.243  36.233  0.00  0.00    +0.000 C 
BRANCH  16  17
ATOM     17  C   UNL     1      57.691  69.146  35.202  0.00  0.00    +0.000 A 
ATOM     18  C   UNL     1      58.314  67.935  35.523  0.00  0.00    +0.000 A 
ATOM     19  C   UNL     1      57.195  69.306  33.904  0.00  0.00    +0.000 A 
ATOM     20  C   UNL     1      58.576  66.971  34.549  0.00  0.00    +0.000 A 
ATOM     21  C   UNL     1      57.422  68.327  32.929  0.00  0.00    +0.000 A 
ATOM     22  C   UNL     1      58.138  67.174  33.243  0.00  0.00    +0.000 A 
ENDBRANCH  16  17
ENDBRANCH   6  16
BRANCH  10  23
ATOM     23  C   UNL     1      53.461  71.362  37.926  0.00  0.00    +0.000 C 
BRANCH  23  24
ATOM     24  C   UNL     1      52.361  70.443  38.488  0.00  0.00    +0.000 C 
BRANCH  24  25
ATOM     25  N   UNL     1      52.648  69.047  38.120  0.00  0.00    +0.000 NA
ATOM     26  H   UNL     1      52.055  68.766  37.337  0.00  0.00    +0.000 HD
ATOM     27  H   UNL     1      52.370  68.436  38.890  0.00  0.00    +0.000 HD
ENDBRANCH  24  25
BRANCH  24  28
ATOM     28  C   UNL     1      50.974  70.900  38.003  0.00  0.00    +0.000 C 
BRANCH  28  32
ATOM     29  F   UNL     1      49.687  73.378  37.413  0.00  0.00    +0.000 F 
ATOM     30  F   UNL     1      49.029  71.395  42.442  0.00  0.00    +0.000 F 
ATOM     31  F   UNL     1      47.806  73.733  41.707  0.00  0.00    +0.000 F 
ATOM     32  C   UNL     1      50.166  71.682  39.003  0.00  0.00    +0.000 A 
ATOM     33  C   UNL     1      49.536  72.884  38.647  0.00  0.00    +0.000 A 
ATOM     34  C   UNL     1      49.984  71.185  40.303  0.00  0.00    +0.000 A 
ATOM     35  C   UNL     1      49.194  71.883  41.206  0.00  0.00    +0.000 A 
ATOM     36  C   UNL     1      48.739  73.582  39.551  0.00  0.00    +0.000 A 
ATOM     37  C   UNL     1      48.573  73.071  40.831  0.00  0.00    +0.000 A 
ENDBRANCH  28  32
ENDBRANCH  24  28
ENDBRANCH  23  24
ENDBRANCH  10  23
TORSDOF 8
ENDMDL
MODEL 4
REMARK VINA RESULT:      -8.0     17.880     21.840
REMARK  Name = 24776592
REMARK  8 active torsions:
REMARK  status: ('A' for Active; 'I' for Inactive)
REMARK    1  A    between atoms: N_12  and  C_21
REMARK    2  A    between atoms: C_13  and  C_17
REMARK    3  A    between atoms: C_17  and  C_22
REMARK    4  A    between atoms: C_18  and  C_19
REMARK    5  A    between atoms: C_19  and  C_21
REMARK    6  A    between atoms: C_20  and  C_24
REMARK    7  A    between atoms: C_21  and  C_23
REMARK    8  A    between atoms: C_23  and  C_27
REMARK                            x       y       z     vdW  Elec       q    Type
REMARK                         _______ _______ _______ _____ _____    ______ ____
ROOT
ATOM      1  O   UNL     1      37.049  50.382  45.225  0.00  0.00    +0.000 OA
ATOM      2  N   UNL     1      35.996  50.297  47.269  0.00  0.00    +0.000 N 
ATOM      3  N   UNL     1      35.736  49.709  49.999  0.00  0.00    +0.000 N 
ATOM      4  N   UNL     1      37.316  48.217  50.104  0.00  0.00    +0.000 NA
ATOM      5  N   UNL     1      36.839  48.450  51.377  0.00  0.00    +0.000 NA
ATOM      6  C   UNL     1      37.002  49.328  47.824  0.00  0.00    +0.000 C 
ATOM      7  C   UNL     1      34.675  50.283  47.914  0.00  0.00    +0.000 C 
ATOM      8  C   UNL     1      36.692  49.037  49.281  0.00  0.00    +0.000 A 
ATOM      9  C   UNL     1      34.787  50.606  49.391  0.00  0.00    +0.000 C 
ATOM     10  C   UNL     1      36.133  50.751  45.960  0.00  0.00    +0.000 C 
ATOM     11  C   UNL     1      35.903  49.380  51.315  0.00  0.00    +0.000 A 
ENDROOT
BRANCH  11  15
ATOM     12  F   UNL     1      33.804  49.940  52.269  0.00  0.00    +0.000 F 
ATOM     13  F   UNL     1      35.450  51.313  52.606  0.00  0.00    +0.000 F 
ATOM     14  F   UNL     1      35.406  49.379  53.625  0.00  0.00    +0.000 F 
ATOM     15  C   UNL     1      35.154  49.998  52.443  0.00  0.00    +0.000 C 
ENDBRANCH  11  15
BRANCH   6  16
ATOM     16  C   UNL     1      38.511  49.726  47.680  0.00  0.00    +0.000 C 
BRANCH  16  17
ATOM     17  C   UNL     1      39.469  48.630  47.261  0.00  0.00    +0.000 A 
ATOM     18  C   UNL     1      40.578  48.299  48.046  0.00  0.00    +0.000 A 
ATOM     19  C   UNL     1      39.252  47.902  46.087  0.00  0.00    +0.000 A 
ATOM     20  C   UNL     1      41.531  47.379  47.607  0.00  0.00    +0.000 A 
ATOM     21  C   UNL     1      40.186  46.951  45.657  0.00  0.00    +0.000 A 
ATOM     22  C   UNL     1      41.339  46.711  46.401  0.00  0.00    +0.000 A 
ENDBRANCH  16  17
ENDBRANCH   6  16
BRANCH  10  23
ATOM     23  C   UNL     1      35.130  51.779  45.437  0.00  0.00    +0.000 C 
BRANCH  23  24
ATOM     24  C   UNL     1      35.797  53.086  44.972  0.00  0.00    +0.000 C 
BRANCH  24  25
ATOM     25  N   UNL     1      36.876  53.448  45.905  0.00  0.00    +0.000 NA
ATOM     26  H   UNL     1      37.755  53.555  45.394  0.00  0.00    +0.000 HD
ATOM     27  H   UNL     1      37.040  52.667  46.545  0.00  0.00    +0.000 HD
ENDBRANCH  24  25
BRANCH  24  28
ATOM     28  C   UNL     1      34.752  54.206  44.827  0.00  0.00    +0.000 C 
BRANCH  28  32
ATOM     29  F   UNL     1      35.660  56.906  44.996  0.00  0.00    +0.000 F 
ATOM     30  F   UNL     1      33.018  54.917  49.324  0.00  0.00    +0.000 F 
ATOM     31  F   UNL     1      33.897  57.511  49.313  0.00  0.00    +0.000 F 
ATOM     32  C   UNL     1      34.566  55.076  46.040  0.00  0.00    +0.000 A 
ATOM     33  C   UNL     1      35.014  56.406  46.056  0.00  0.00    +0.000 A 
ATOM     34  C   UNL     1      33.886  54.580  47.164  0.00  0.00    +0.000 A 
ATOM     35  C   UNL     1      33.670  55.404  48.261  0.00  0.00    +0.000 A 
ATOM     36  C   UNL     1      34.792  57.233  47.154  0.00  0.00    +0.000 A 
ATOM     37  C   UNL     1      34.117  56.722  48.253  0.00  0.00    +0.000 A 
ENDBRANCH  28  32
ENDBRANCH  24  28
ENDBRANCH  23  24
ENDBRANCH  10  23
TORSDOF 8
ENDMDL
MODEL 5
REMARK VINA RESULT:      -7.5     23.887     25.971
REMARK  Name = 24776592
REMARK  8 active torsions:
REMARK  status: ('A' for Active; 'I' for Inactive)
REMARK    1  A    between atoms: N_12  and  C_21
REMARK    2  A    between atoms: C_13  and  C_17
REMARK    3  A    between atoms: C_17  and  C_22
REMARK    4  A    between atoms: C_18  and  C_19
REMARK    5  A    between atoms: C_19  and  C_21
REMARK    6  A    between atoms: C_20  and  C_24
REMARK    7  A    between atoms: C_21  and  C_23
REMARK    8  A    between atoms: C_23  and  C_27
REMARK                            x       y       z     vdW  Elec       q    Type
REMARK                         _______ _______ _______ _____ _____    ______ ____
ROOT
ATOM      1  O   UNL     1      53.251  71.099  40.129  0.00  0.00    +0.000 OA
ATOM      2  N   UNL     1      54.351  69.698  38.673  0.00  0.00    +0.000 N 
ATOM      3  N   UNL     1      54.817  68.375  36.245  0.00  0.00    +0.000 N 
ATOM      4  N   UNL     1      52.808  68.580  35.436  0.00  0.00    +0.000 NA
ATOM      5  N   UNL     1      53.619  68.015  34.473  0.00  0.00    +0.000 NA
ATOM      6  C   UNL     1      53.197  69.680  37.711  0.00  0.00    +0.000 C 
ATOM      7  C   UNL     1      55.253  68.539  38.608  0.00  0.00    +0.000 C 
ATOM      8  C   UNL     1      53.558  68.862  36.483  0.00  0.00    +0.000 A 
ATOM      9  C   UNL     1      55.868  68.405  37.229  0.00  0.00    +0.000 C 
ATOM     10  C   UNL     1      54.255  70.448  39.841  0.00  0.00    +0.000 C 
ATOM     11  C   UNL     1      54.845  67.923  34.954  0.00  0.00    +0.000 A 
ENDROOT
BRANCH  11  15
ATOM     12  F   UNL     1      56.650  66.384  34.890  0.00  0.00    +0.000 F 
ATOM     13  F   UNL     1      57.027  68.392  34.163  0.00  0.00    +0.000 F 
ATOM     14  F   UNL     1      55.799  67.012  32.994  0.00  0.00    +0.000 F 
ATOM     15  C   UNL     1      56.066  67.437  34.255  0.00  0.00    +0.000 C 
ENDBRANCH  11  15
BRANCH   6  16
ATOM     16  C   UNL     1      52.636  71.073  37.263  0.00  0.00    +0.000 C 
BRANCH  16  17
ATOM     17  C   UNL     1      51.183  71.359  37.581  0.00  0.00    +0.000 A 
ATOM     18  C   UNL     1      50.741  72.659  37.842  0.00  0.00    +0.000 A 
ATOM     19  C   UNL     1      50.239  70.327  37.596  0.00  0.00    +0.000 A 
ATOM     20  C   UNL     1      49.433  72.914  38.256  0.00  0.00    +0.000 A 
ATOM     21  C   UNL     1      48.915  70.579  37.976  0.00  0.00    +0.000 A 
ATOM     22  C   UNL     1      48.519  71.866  38.335  0.00  0.00    +0.000 A 
ENDBRANCH  16  17
ENDBRANCH   6  16
BRANCH  10  23
ATOM     23  C   UNL     1      55.463  70.496  40.777  0.00  0.00    +0.000 C 
BRANCH  23  24
ATOM     24  C   UNL     1      55.101  70.188  42.241  0.00  0.00    +0.000 C 
BRANCH  24  25
ATOM     25  N   UNL     1      54.209  71.239  42.760  0.00  0.00    +0.000 NA
ATOM     26  H   UNL     1      53.906  71.000  43.706  0.00  0.00    +0.000 HD
ATOM     27  H   UNL     1      53.350  71.250  42.206  0.00  0.00    +0.000 HD
ENDBRANCH  24  25
BRANCH  24  28
ATOM     28  C   UNL     1      56.373  70.031  43.093  0.00  0.00    +0.000 C 
BRANCH  28  32
ATOM     29  F   UNL     1      56.465  72.578  44.377  0.00  0.00    +0.000 F 
ATOM     30  F   UNL     1      60.514  71.408  40.928  0.00  0.00    +0.000 F 
ATOM     31  F   UNL     1      60.496  73.789  42.283  0.00  0.00    +0.000 F 
ATOM     32  C   UNL     1      57.447  71.055  42.844  0.00  0.00    +0.000 A 
ATOM     33  C   UNL     1      57.453  72.282  43.524  0.00  0.00    +0.000 A 
ATOM     34  C   UNL     1      58.499  70.770  41.959  0.00  0.00    +0.000 A 
ATOM     35  C   UNL     1      59.516  71.696  41.773  0.00  0.00    +0.000 A 
ATOM     36  C   UNL     1      58.475  73.209  43.341  0.00  0.00    +0.000 A 
ATOM     37  C   UNL     1      59.505  72.905  42.462  0.00  0.00    +0.000 A 
ENDBRANCH  28  32
ENDBRANCH  24  28
ENDBRANCH  23  24
ENDBRANCH  10  23
TORSDOF 8
ENDMDL
MODEL 6
REMARK VINA RESULT:      -7.5     24.249     26.480
REMARK  Name = 24776592
REMARK  8 active torsions:
REMARK  status: ('A' for Active; 'I' for Inactive)
REMARK    1  A    between atoms: N_12  and  C_21
REMARK    2  A    between atoms: C_13  and  C_17
REMARK    3  A    between atoms: C_17  and  C_22
REMARK    4  A    between atoms: C_18  and  C_19
REMARK    5  A    between atoms: C_19  and  C_21
REMARK    6  A    between atoms: C_20  and  C_24
REMARK    7  A    between atoms: C_21  and  C_23
REMARK    8  A    between atoms: C_23  and  C_27
REMARK                            x       y       z     vdW  Elec       q    Type
REMARK                         _______ _______ _______ _____ _____    ______ ____
ROOT
ATOM      1  O   UNL     1      53.231  70.791  40.828  0.00  0.00    +0.000 OA
ATOM      2  N   UNL     1      54.623  69.670  39.379  0.00  0.00    +0.000 N 
ATOM      3  N   UNL     1      55.527  68.741  36.892  0.00  0.00    +0.000 N 
ATOM      4  N   UNL     1      53.649  68.975  35.818  0.00  0.00    +0.000 NA
ATOM      5  N   UNL     1      54.628  68.594  34.924  0.00  0.00    +0.000 NA
ATOM      6  C   UNL     1      53.627  69.743  38.256  0.00  0.00    +0.000 C 
ATOM      7  C   UNL     1      55.600  68.573  39.293  0.00  0.00    +0.000 C 
ATOM      8  C   UNL     1      54.217  69.131  36.998  0.00  0.00    +0.000 A 
ATOM      9  C   UNL     1      56.418  68.672  38.021  0.00  0.00    +0.000 C 
ATOM     10  C   UNL     1      54.307  70.234  40.611  0.00  0.00    +0.000 C 
ATOM     11  C   UNL     1      55.774  68.486  35.571  0.00  0.00    +0.000 A 
ENDROOT
BRANCH  11  15
ATOM     12  F   UNL     1      57.085  67.982  33.658  0.00  0.00    +0.000 F 
ATOM     13  F   UNL     1      57.632  67.018  35.523  0.00  0.00    +0.000 F 
ATOM     14  F   UNL     1      58.016  69.151  35.234  0.00  0.00    +0.000 F 
ATOM     15  C   UNL     1      57.114  68.163  35.008  0.00  0.00    +0.000 C 
ENDBRANCH  11  15
BRANCH   6  16
ATOM     16  C   UNL     1      53.047  71.161  37.925  0.00  0.00    +0.000 C 
BRANCH  16  17
ATOM     17  C   UNL     1      51.539  71.300  37.928  0.00  0.00    +0.000 A 
ATOM     18  C   UNL     1      50.928  72.558  37.929  0.00  0.00    +0.000 A 
ATOM     19  C   UNL     1      50.717  70.169  37.902  0.00  0.00    +0.000 A 
ATOM     20  C   UNL     1      49.545  72.694  38.057  0.00  0.00    +0.000 A 
ATOM     21  C   UNL     1      49.326  70.297  37.993  0.00  0.00    +0.000 A 
ATOM     22  C   UNL     1      48.742  71.558  38.101  0.00  0.00    +0.000 A 
ENDBRANCH  16  17
ENDBRANCH   6  16
BRANCH  10  23
ATOM     23  C   UNL     1      55.360  70.197  41.720  0.00  0.00    +0.000 C 
BRANCH  23  24
ATOM     24  C   UNL     1      55.833  71.598  42.145  0.00  0.00    +0.000 C 
BRANCH  24  25
ATOM     25  N   UNL     1      55.395  72.590  41.150  0.00  0.00    +0.000 NA
ATOM     26  H   UNL     1      54.594  72.228  40.629  0.00  0.00    +0.000 HD
ATOM     27  H   UNL     1      56.131  72.706  40.449  0.00  0.00    +0.000 HD
ENDBRANCH  24  25
BRANCH  24  28
ATOM     28  C   UNL     1      57.357  71.615  42.354  0.00  0.00    +0.000 C 
BRANCH  28  32
ATOM     29  F   UNL     1      58.329  72.560  39.842  0.00  0.00    +0.000 F 
ATOM     30  F   UNL     1      59.558  67.427  41.187  0.00  0.00    +0.000 F 
ATOM     31  F   UNL     1      60.471  68.497  38.837  0.00  0.00    +0.000 F 
ATOM     32  C   UNL     1      58.150  70.771  41.392  0.00  0.00    +0.000 A 
ATOM     33  C   UNL     1      58.622  71.298  40.180  0.00  0.00    +0.000 A 
ATOM     34  C   UNL     1      58.476  69.446  41.723  0.00  0.00    +0.000 A 
ATOM     35  C   UNL     1      59.253  68.689  40.856  0.00  0.00    +0.000 A 
ATOM     36  C   UNL     1      59.404  70.540  39.314  0.00  0.00    +0.000 A 
ATOM     37  C   UNL     1      59.715  69.233  39.662  0.00  0.00    +0.000 A 
ENDBRANCH  28  32
ENDBRANCH  24  28
ENDBRANCH  23  24
ENDBRANCH  10  23
TORSDOF 8
ENDMDL
MODEL 7
REMARK VINA RESULT:      -7.4     22.481     24.945
REMARK  Name = 24776592
REMARK  8 active torsions:
REMARK  status: ('A' for Active; 'I' for Inactive)
REMARK    1  A    between atoms: N_12  and  C_21
REMARK    2  A    between atoms: C_13  and  C_17
REMARK    3  A    between atoms: C_17  and  C_22
REMARK    4  A    between atoms: C_18  and  C_19
REMARK    5  A    between atoms: C_19  and  C_21
REMARK    6  A    between atoms: C_20  and  C_24
REMARK    7  A    between atoms: C_21  and  C_23
REMARK    8  A    between atoms: C_23  and  C_27
REMARK                            x       y       z     vdW  Elec       q    Type
REMARK                         _______ _______ _______ _____ _____    ______ ____
ROOT
ATOM      1  O   UNL     1      52.662  68.196  38.672  0.00  0.00    +0.000 OA
ATOM      2  N   UNL     1      53.424  69.501  40.407  0.00  0.00    +0.000 N 
ATOM      3  N   UNL     1      55.273  70.422  42.305  0.00  0.00    +0.000 N 
ATOM      4  N   UNL     1      56.571  68.676  42.286  0.00  0.00    +0.000 NA
ATOM      5  N   UNL     1      57.142  69.645  43.084  0.00  0.00    +0.000 NA
ATOM      6  C   UNL     1      54.605  68.604  40.654  0.00  0.00    +0.000 C 
ATOM      7  C   UNL     1      52.986  70.306  41.557  0.00  0.00    +0.000 C 
ATOM      8  C   UNL     1      55.472  69.180  41.759  0.00  0.00    +0.000 A 
ATOM      9  C   UNL     1      54.099  71.214  42.041  0.00  0.00    +0.000 C 
ATOM     10  C   UNL     1      52.531  69.190  39.387  0.00  0.00    +0.000 C 
ATOM     11  C   UNL     1      56.369  70.716  43.068  0.00  0.00    +0.000 A 
ENDROOT
BRANCH  11  15
ATOM     12  F   UNL     1      57.067  71.895  45.005  0.00  0.00    +0.000 F 
ATOM     13  F   UNL     1      55.487  72.784  43.814  0.00  0.00    +0.000 F 
ATOM     14  F   UNL     1      57.544  72.766  43.074  0.00  0.00    +0.000 F 
ATOM     15  C   UNL     1      56.612  72.028  43.728  0.00  0.00    +0.000 C 
ENDBRANCH  11  15
BRANCH   6  16
ATOM     16  C   UNL     1      55.498  68.265  39.411  0.00  0.00    +0.000 C 
BRANCH  16  17
ATOM     17  C   UNL     1      56.080  69.436  38.648  0.00  0.00    +0.000 A 
ATOM     18  C   UNL     1      57.192  70.134  39.129  0.00  0.00    +0.000 A 
ATOM     19  C   UNL     1      55.534  69.833  37.424  0.00  0.00    +0.000 A 
ATOM     20  C   UNL     1      57.656  71.288  38.497  0.00  0.00    +0.000 A 
ATOM     21  C   UNL     1      56.017  70.969  36.763  0.00  0.00    +0.000 A 
ATOM     22  C   UNL     1      57.058  71.714  37.314  0.00  0.00    +0.000 A 
ENDBRANCH  16  17
ENDBRANCH   6  16
BRANCH  10  23
ATOM     23  C   UNL     1      51.369  70.147  39.120  0.00  0.00    +0.000 C 
BRANCH  23  24
ATOM     24  C   UNL     1      50.826  70.046  37.683  0.00  0.00    +0.000 C 
BRANCH  24  25
ATOM     25  N   UNL     1      51.714  70.782  36.767  0.00  0.00    +0.000 NA
ATOM     26  H   UNL     1      52.190  71.531  37.273  0.00  0.00    +0.000 HD
ATOM     27  H   UNL     1      51.145  71.261  36.065  0.00  0.00    +0.000 HD
ENDBRANCH  24  25
BRANCH  24  28
ATOM     28  C   UNL     1      49.374  70.549  37.615  0.00  0.00    +0.000 C 
BRANCH  28  32
ATOM     29  F   UNL     1      50.027  73.326  37.692  0.00  0.00    +0.000 F 
ATOM     30  F   UNL     1      47.012  71.389  41.793  0.00  0.00    +0.000 F 
ATOM     31  F   UNL     1      47.669  74.046  41.695  0.00  0.00    +0.000 F 
ATOM     32  C   UNL     1      48.959  71.475  38.727  0.00  0.00    +0.000 A 
ATOM     33  C   UNL     1      49.290  72.839  38.698  0.00  0.00    +0.000 A 
ATOM     34  C   UNL     1      48.181  70.993  39.791  0.00  0.00    +0.000 A 
ATOM     35  C   UNL     1      47.756  71.864  40.786  0.00  0.00    +0.000 A 
ATOM     36  C   UNL     1      48.860  73.711  39.693  0.00  0.00    +0.000 A 
ATOM     37  C   UNL     1      48.091  73.213  40.735  0.00  0.00    +0.000 A 
ENDBRANCH  28  32
ENDBRANCH  24  28
ENDBRANCH  23  24
ENDBRANCH  10  23
TORSDOF 8
ENDMDL
MODEL 8
REMARK VINA RESULT:      -7.3     17.756     21.452
REMARK  Name = 24776592
REMARK  8 active torsions:
REMARK  status: ('A' for Active; 'I' for Inactive)
REMARK    1  A    between atoms: N_12  and  C_21
REMARK    2  A    between atoms: C_13  and  C_17
REMARK    3  A    between atoms: C_17  and  C_22
REMARK    4  A    between atoms: C_18  and  C_19
REMARK    5  A    between atoms: C_19  and  C_21
REMARK    6  A    between atoms: C_20  and  C_24
REMARK    7  A    between atoms: C_21  and  C_23
REMARK    8  A    between atoms: C_23  and  C_27
REMARK                            x       y       z     vdW  Elec       q    Type
REMARK                         _______ _______ _______ _____ _____    ______ ____
ROOT
ATOM      1  O   UNL     1      36.261  54.257  46.371  0.00  0.00    +0.000 OA
ATOM      2  N   UNL     1      36.606  52.492  47.807  0.00  0.00    +0.000 N 
ATOM      3  N   UNL     1      36.270  50.985  50.148  0.00  0.00    +0.000 N 
ATOM      4  N   UNL     1      35.483  52.590  51.390  0.00  0.00    +0.000 NA
ATOM      5  N   UNL     1      35.427  51.409  52.101  0.00  0.00    +0.000 NA
ATOM      6  C   UNL     1      35.970  53.216  48.959  0.00  0.00    +0.000 C 
ATOM      7  C   UNL     1      37.565  51.437  48.168  0.00  0.00    +0.000 C 
ATOM      8  C   UNL     1      35.929  52.313  50.180  0.00  0.00    +0.000 A 
ATOM      9  C   UNL     1      36.902  50.366  49.012  0.00  0.00    +0.000 C 
ATOM     10  C   UNL     1      36.686  53.118  46.566  0.00  0.00    +0.000 C 
ATOM     11  C   UNL     1      35.873  50.431  51.334  0.00  0.00    +0.000 A 
ENDROOT
BRANCH  11  15
ATOM     12  F   UNL     1      37.217  48.521  51.753  0.00  0.00    +0.000 F 
ATOM     13  F   UNL     1      35.345  48.211  50.701  0.00  0.00    +0.000 F 
ATOM     14  F   UNL     1      35.342  48.686  52.835  0.00  0.00    +0.000 F 
ATOM     15  C   UNL     1      35.938  48.978  51.652  0.00  0.00    +0.000 C 
ENDBRANCH  11  15
BRANCH   6  16
ATOM     16  C   UNL     1      34.545  53.819  48.708  0.00  0.00    +0.000 C 
BRANCH  16  17
ATOM     17  C   UNL     1      34.374  55.300  48.969  0.00  0.00    +0.000 A 
ATOM     18  C   UNL     1      33.231  55.984  48.543  0.00  0.00    +0.000 A 
ATOM     19  C   UNL     1      35.348  56.019  49.670  0.00  0.00    +0.000 A 
ATOM     20  C   UNL     1      33.123  57.369  48.670  0.00  0.00    +0.000 A 
ATOM     21  C   UNL     1      35.230  57.404  49.834  0.00  0.00    +0.000 A 
ATOM     22  C   UNL     1      34.133  58.084  49.308  0.00  0.00    +0.000 A 
ENDBRANCH  16  17
ENDBRANCH   6  16
BRANCH  10  23
ATOM     23  C   UNL     1      37.287  52.340  45.395  0.00  0.00    +0.000 C 
BRANCH  23  24
ATOM     24  C   UNL     1      36.365  52.302  44.164  0.00  0.00    +0.000 C 
BRANCH  24  25
ATOM     25  N   UNL     1      34.962  52.411  44.595  0.00  0.00    +0.000 NA
ATOM     26  H   UNL     1      34.918  52.810  45.535  0.00  0.00    +0.000 HD
ATOM     27  H   UNL     1      34.569  51.472  44.692  0.00  0.00    +0.000 HD
ENDBRANCH  24  25
BRANCH  24  28
ATOM     28  C   UNL     1      36.622  51.033  43.333  0.00  0.00    +0.000 C 
BRANCH  28  32
ATOM     29  F   UNL     1      39.344  50.342  42.824  0.00  0.00    +0.000 F 
ATOM     30  F   UNL     1      36.769  47.519  46.705  0.00  0.00    +0.000 F 
ATOM     31  F   UNL     1      39.402  47.013  46.144  0.00  0.00    +0.000 F 
ATOM     32  C   UNL     1      37.353  49.929  44.050  0.00  0.00    +0.000 A 
ATOM     33  C   UNL     1      38.700  49.651  43.773  0.00  0.00    +0.000 A 
ATOM     34  C   UNL     1      36.705  49.193  45.054  0.00  0.00    +0.000 A 
ATOM     35  C   UNL     1      37.400  48.212  45.749  0.00  0.00    +0.000 A 
ATOM     36  C   UNL     1      39.398  48.671  44.473  0.00  0.00    +0.000 A 
ATOM     37  C   UNL     1      38.737  47.956  45.462  0.00  0.00    +0.000 A 
ENDBRANCH  28  32
ENDBRANCH  24  28
ENDBRANCH  23  24
ENDBRANCH  10  23
TORSDOF 8
ENDMDL
MODEL 9
REMARK VINA RESULT:      -7.1      3.440      6.945
REMARK  Name = 24776592
REMARK  8 active torsions:
REMARK  status: ('A' for Active; 'I' for Inactive)
REMARK    1  A    between atoms: N_12  and  C_21
REMARK    2  A    between atoms: C_13  and  C_17
REMARK    3  A    between atoms: C_17  and  C_22
REMARK    4  A    between atoms: C_18  and  C_19
REMARK    5  A    between atoms: C_19  and  C_21
REMARK    6  A    between atoms: C_20  and  C_24
REMARK    7  A    between atoms: C_21  and  C_23
REMARK    8  A    between atoms: C_23  and  C_27
REMARK                            x       y       z     vdW  Elec       q    Type
REMARK                         _______ _______ _______ _____ _____    ______ ____
ROOT
ATOM      1  O   UNL     1      30.261  64.013  38.457  0.00  0.00    +0.000 OA
ATOM      2  N   UNL     1      29.891  66.278  38.628  0.00  0.00    +0.000 N 
ATOM      3  N   UNL     1      29.902  68.793  39.870  0.00  0.00    +0.000 N 
ATOM      4  N   UNL     1      30.066  68.081  41.919  0.00  0.00    +0.000 NA
ATOM      5  N   UNL     1      30.153  69.457  41.919  0.00  0.00    +0.000 NA
ATOM      6  C   UNL     1      30.087  66.266  40.118  0.00  0.00    +0.000 C 
ATOM      7  C   UNL     1      29.074  67.382  38.102  0.00  0.00    +0.000 C 
ATOM      8  C   UNL     1      29.986  67.679  40.666  0.00  0.00    +0.000 A 
ATOM      9  C   UNL     1      29.687  68.724  38.447  0.00  0.00    +0.000 C 
ATOM     10  C   UNL     1      30.008  65.089  37.915  0.00  0.00    +0.000 C 
ATOM     11  C   UNL     1      30.087  69.885  40.671  0.00  0.00    +0.000 A 
ENDROOT
BRANCH  11  15
ATOM     12  F   UNL     1      30.541  71.351  38.861  0.00  0.00    +0.000 F 
ATOM     13  F   UNL     1      31.156  71.992  40.840  0.00  0.00    +0.000 F 
ATOM     14  F   UNL     1      29.038  71.969  40.301  0.00  0.00    +0.000 F 
ATOM     15  C   UNL     1      30.203  71.285  40.179  0.00  0.00    +0.000 C 
ENDBRANCH  11  15
BRANCH   6  16
ATOM     16  C   UNL     1      31.401  65.595  40.646  0.00  0.00    +0.000 C 
BRANCH  16  17
ATOM     17  C   UNL     1      31.243  64.526  41.707  0.00  0.00    +0.000 A 
ATOM     18  C   UNL     1      30.000  63.937  41.963  0.00  0.00    +0.000 A 
ATOM     19  C   UNL     1      32.346  64.080  42.442  0.00  0.00    +0.000 A 
ATOM     20  C   UNL     1      29.822  63.044  43.020  0.00  0.00    +0.000 A 
ATOM     21  C   UNL     1      32.183  63.156  43.481  0.00  0.00    +0.000 A 
ATOM     22  C   UNL     1      30.917  62.661  43.790  0.00  0.00    +0.000 A 
ENDBRANCH  16  17
ENDBRANCH   6  16
BRANCH  10  23
ATOM     23  C   UNL     1      29.859  65.136  36.393  0.00  0.00    +0.000 C 
BRANCH  23  24
ATOM     24  C   UNL     1      28.507  64.585  35.906  0.00  0.00    +0.000 C 
BRANCH  24  25
ATOM     25  N   UNL     1      28.574  63.117  35.820  0.00  0.00    +0.000 NA
ATOM     26  H   UNL     1      29.350  62.772  36.388  0.00  0.00    +0.000 HD
ATOM     27  H   UNL     1      28.813  62.850  34.862  0.00  0.00    +0.000 HD
ENDBRANCH  24  25
BRANCH  24  28
ATOM     28  C   UNL     1      28.110  65.230  34.567  0.00  0.00    +0.000 C 
BRANCH  28  32
ATOM     29  F   UNL     1      30.229  66.771  33.438  0.00  0.00    +0.000 F 
ATOM     30  F   UNL     1      26.010  69.525  35.505  0.00  0.00    +0.000 F 
ATOM     31  F   UNL     1      28.092  70.863  34.332  0.00  0.00    +0.000 F 
ATOM     32  C   UNL     1      28.130  66.734  34.544  0.00  0.00    +0.000 A 
ATOM     33  C   UNL     1      29.190  67.438  33.953  0.00  0.00    +0.000 A 
ATOM     34  C   UNL     1      27.050  67.460  35.071  0.00  0.00    +0.000 A 
ATOM     35  C   UNL     1      27.048  68.847  35.000  0.00  0.00    +0.000 A 
ATOM     36  C   UNL     1      29.186  68.828  33.877  0.00  0.00    +0.000 A 
ATOM     37  C   UNL     1      28.107  69.525  34.404  0.00  0.00    +0.000 A 
ENDBRANCH  28  32
ENDBRANCH  24  28
ENDBRANCH  23  24
ENDBRANCH  10  23
TORSDOF 8
ENDMDL
