MODEL 1
REMARK VINA RESULT:      -8.3      0.000      0.000
REMARK  Name = 9981241
REMARK  9 active torsions:
REMARK  status: ('A' for Active; 'I' for Inactive)
REMARK    1  A    between atoms: O_7  and  C_18
REMARK    2  A    between atoms: O_7  and  C_26
REMARK    3  A    between atoms: N_13  and  C_21
REMARK    4  A    between atoms: C_14  and  C_18
REMARK    5  A    between atoms: C_19  and  C_20
REMARK    6  A    between atoms: C_20  and  C_21
REMARK    7  A    between atoms: C_21  and  C_22
REMARK    8  A    between atoms: C_22  and  C_24
REMARK    9  A    between atoms: C_23  and  C_25
REMARK                            x       y       z     vdW  Elec       q    Type
REMARK                         _______ _______ _______ _____ _____    ______ ____
ROOT
ATOM      1  O   UNL     1      40.480  53.844  37.463  0.00  0.00    +0.000 OA
ATOM      2  N   UNL     1      40.322  51.588  37.849  0.00  0.00    +0.000 N 
ATOM      3  N   UNL     1      38.640  49.694  36.797  0.00  0.00    +0.000 N 
ATOM      4  N   UNL     1      36.760  50.602  37.410  0.00  0.00    +0.000 NA
ATOM      5  N   UNL     1      37.727  48.896  36.227  0.00  0.00    +0.000 NA
ATOM      6  C   UNL     1      38.893  51.711  38.263  0.00  0.00    +0.000 C 
ATOM      7  C   UNL     1      40.830  50.215  37.718  0.00  0.00    +0.000 C 
ATOM      8  C   UNL     1      38.070  50.712  37.499  0.00  0.00    +0.000 A 
ATOM      9  C   UNL     1      40.061  49.480  36.624  0.00  0.00    +0.000 C 
ATOM     10  C   UNL     1      41.024  52.742  37.494  0.00  0.00    +0.000 C 
ATOM     11  C   UNL     1      36.568  49.479  36.608  0.00  0.00    +0.000 A 
ENDROOT
BRANCH  11  15
ATOM     12  F   UNL     1      34.670  48.109  37.138  0.00  0.00    +0.000 F 
ATOM     13  F   UNL     1      35.219  48.284  35.036  0.00  0.00    +0.000 F 
ATOM     14  F   UNL     1      34.290  49.969  36.068  0.00  0.00    +0.000 F 
ATOM     15  C   UNL     1      35.197  48.963  36.217  0.00  0.00    +0.000 C 
ENDBRANCH  11  15
BRANCH   6  16
ATOM     16  C   UNL     1      38.691  51.481  39.784  0.00  0.00    +0.000 C 
BRANCH  16  17
ATOM     17  O   UNL     1      38.141  52.612  40.464  0.00  0.00    +0.000 OA
ATOM     18  C   UNL     1      36.723  52.559  40.561  0.00  0.00    +0.000 C 
ENDBRANCH  16  17
ENDBRANCH   6  16
BRANCH  10  19
ATOM     19  C   UNL     1      42.499  52.585  37.125  0.00  0.00    +0.000 C 
BRANCH  19  20
ATOM     20  C   UNL     1      42.808  52.625  35.610  0.00  0.00    +0.000 C 
BRANCH  20  21
ATOM     21  N   UNL     1      41.542  52.658  34.846  0.00  0.00    +0.000 NA
ATOM     22  H   UNL     1      41.522  51.904  34.161  0.00  0.00    +0.000 HD
ATOM     23  H   UNL     1      41.416  53.532  34.341  0.00  0.00    +0.000 HD
ENDBRANCH  20  21
BRANCH  20  24
ATOM     24  C   UNL     1      43.652  51.428  35.100  0.00  0.00    +0.000 C 
BRANCH  24  28
ATOM     25  F   UNL     1      45.227  50.557  37.318  0.00  0.00    +0.000 F 
ATOM     26  F   UNL     1      47.902  53.099  33.311  0.00  0.00    +0.000 F 
ATOM     27  F   UNL     1      49.251  52.185  35.511  0.00  0.00    +0.000 F 
ATOM     28  C   UNL     1      45.153  51.644  35.206  0.00  0.00    +0.000 A 
ATOM     29  C   UNL     1      45.868  51.183  36.321  0.00  0.00    +0.000 A 
ATOM     30  C   UNL     1      45.861  52.305  34.188  0.00  0.00    +0.000 A 
ATOM     31  C   UNL     1      47.241  52.479  34.298  0.00  0.00    +0.000 A 
ATOM     32  C   UNL     1      47.245  51.362  36.433  0.00  0.00    +0.000 A 
ATOM     33  C   UNL     1      47.925  52.012  35.412  0.00  0.00    +0.000 A 
ENDBRANCH  24  28
ENDBRANCH  20  24
ENDBRANCH  19  20
ENDBRANCH  10  19
TORSDOF 8
ENDMDL
MODEL 2
REMARK VINA RESULT:      -7.9     22.639     25.449
REMARK  Name = 9981241
REMARK  9 active torsions:
REMARK  status: ('A' for Active; 'I' for Inactive)
REMARK    1  A    between atoms: O_7  and  C_18
REMARK    2  A    between atoms: O_7  and  C_26
REMARK    3  A    between atoms: N_13  and  C_21
REMARK    4  A    between atoms: C_14  and  C_18
REMARK    5  A    between atoms: C_19  and  C_20
REMARK    6  A    between atoms: C_20  and  C_21
REMARK    7  A    between atoms: C_21  and  C_22
REMARK    8  A    between atoms: C_22  and  C_24
REMARK    9  A    between atoms: C_23  and  C_25
REMARK                            x       y       z     vdW  Elec       q    Type
REMARK                         _______ _______ _______ _____ _____    ______ ____
ROOT
ATOM      1  O   UNL     1      54.652  71.800  37.081  0.00  0.00    +0.000 OA
ATOM      2  N   UNL     1      54.694  70.317  38.830  0.00  0.00    +0.000 N 
ATOM      3  N   UNL     1      54.835  70.730  41.539  0.00  0.00    +0.000 N 
ATOM      4  N   UNL     1      56.708  71.838  41.566  0.00  0.00    +0.000 NA
ATOM      5  N   UNL     1      54.947  71.089  42.825  0.00  0.00    +0.000 NA
ATOM      6  C   UNL     1      55.995  70.860  39.321  0.00  0.00    +0.000 C 
ATOM      7  C   UNL     1      54.043  69.336  39.710  0.00  0.00    +0.000 C 
ATOM      8  C   UNL     1      55.878  71.176  40.785  0.00  0.00    +0.000 A 
ATOM      9  C   UNL     1      53.695  69.987  41.046  0.00  0.00    +0.000 C 
ATOM     10  C   UNL     1      54.131  70.857  37.672  0.00  0.00    +0.000 C 
ATOM     11  C   UNL     1      56.108  71.783  42.822  0.00  0.00    +0.000 A 
ENDROOT
BRANCH  11  15
ATOM     12  F   UNL     1      57.395  71.548  44.834  0.00  0.00    +0.000 F 
ATOM     13  F   UNL     1      55.755  72.983  44.861  0.00  0.00    +0.000 F 
ATOM     14  F   UNL     1      57.579  73.427  43.746  0.00  0.00    +0.000 F 
ATOM     15  C   UNL     1      56.706  72.429  44.057  0.00  0.00    +0.000 C 
ENDBRANCH  11  15
BRANCH   6  16
ATOM     16  C   UNL     1      57.172  69.872  39.106  0.00  0.00    +0.000 C 
BRANCH  16  17
ATOM     17  O   UNL     1      58.393  70.513  38.728  0.00  0.00    +0.000 OA
ATOM     18  C   UNL     1      59.456  70.250  39.636  0.00  0.00    +0.000 C 
ENDBRANCH  16  17
ENDBRANCH   6  16
BRANCH  10  19
ATOM     19  C   UNL     1      52.823  70.242  37.171  0.00  0.00    +0.000 C 
BRANCH  19  20
ATOM     20  C   UNL     1      51.623  71.215  37.096  0.00  0.00    +0.000 C 
BRANCH  20  21
ATOM     21  N   UNL     1      51.940  72.452  37.843  0.00  0.00    +0.000 NA
ATOM     22  H   UNL     1      52.293  72.225  38.771  0.00  0.00    +0.000 HD
ATOM     23  H   UNL     1      51.126  73.050  37.965  0.00  0.00    +0.000 HD
ENDBRANCH  20  21
BRANCH  20  24
ATOM     24  C   UNL     1      50.298  70.636  37.654  0.00  0.00    +0.000 C 
BRANCH  24  28
ATOM     25  F   UNL     1      50.434  69.840  40.394  0.00  0.00    +0.000 F 
ATOM     26  F   UNL     1      47.904  74.555  39.374  0.00  0.00    +0.000 F 
ATOM     27  F   UNL     1      48.139  73.642  41.944  0.00  0.00    +0.000 F 
ATOM     28  C   UNL     1      49.707  71.444  38.798  0.00  0.00    +0.000 A 
ATOM     29  C   UNL     1      49.817  70.999  40.123  0.00  0.00    +0.000 A 
ATOM     30  C   UNL     1      49.043  72.658  38.556  0.00  0.00    +0.000 A 
ATOM     31  C   UNL     1      48.521  73.393  39.622  0.00  0.00    +0.000 A 
ATOM     32  C   UNL     1      49.291  71.730  41.187  0.00  0.00    +0.000 A 
ATOM     33  C   UNL     1      48.645  72.930  40.925  0.00  0.00    +0.000 A 
ENDBRANCH  24  28
ENDBRANCH  20  24
ENDBRANCH  19  20
ENDBRANCH  10  19
TORSDOF 8
ENDMDL
MODEL 3
REMARK VINA RESULT:      -7.4      7.082     12.717
REMARK  Name = 9981241
REMARK  9 active torsions:
REMARK  status: ('A' for Active; 'I' for Inactive)
REMARK    1  A    between atoms: O_7  and  C_18
REMARK    2  A    between atoms: O_7  and  C_26
REMARK    3  A    between atoms: N_13  and  C_21
REMARK    4  A    between atoms: C_14  and  C_18
REMARK    5  A    between atoms: C_19  and  C_20
REMARK    6  A    between atoms: C_20  and  C_21
REMARK    7  A    between atoms: C_21  and  C_22
REMARK    8  A    between atoms: C_22  and  C_24
REMARK    9  A    between atoms: C_23  and  C_25
REMARK                            x       y       z     vdW  Elec       q    Type
REMARK                         _______ _______ _______ _____ _____    ______ ____
ROOT
ATOM      1  O   UNL     1      51.548  52.188  33.739  0.00  0.00    +0.000 OA
ATOM      2  N   UNL     1      51.553  50.580  35.374  0.00  0.00    +0.000 N 
ATOM      3  N   UNL     1      52.244  50.708  38.027  0.00  0.00    +0.000 N 
ATOM      4  N   UNL     1      54.295  51.384  37.759  0.00  0.00    +0.000 NA
ATOM      5  N   UNL     1      52.653  50.917  39.285  0.00  0.00    +0.000 NA
ATOM      6  C   UNL     1      53.007  50.786  35.640  0.00  0.00    +0.000 C 
ATOM      7  C   UNL     1      50.856  49.685  36.310  0.00  0.00    +0.000 C 
ATOM      8  C   UNL     1      53.216  50.988  37.114  0.00  0.00    +0.000 A 
ATOM      9  C   UNL     1      50.899  50.272  37.718  0.00  0.00    +0.000 C 
ATOM     10  C   UNL     1      50.936  51.330  34.370  0.00  0.00    +0.000 C 
ATOM     11  C   UNL     1      53.922  51.345  39.100  0.00  0.00    +0.000 A 
ENDROOT
BRANCH  11  15
ATOM     12  F   UNL     1      56.065  52.174  39.794  0.00  0.00    +0.000 F 
ATOM     13  F   UNL     1      55.106  50.694  41.074  0.00  0.00    +0.000 F 
ATOM     14  F   UNL     1      54.341  52.737  41.000  0.00  0.00    +0.000 F 
ATOM     15  C   UNL     1      54.853  51.735  40.232  0.00  0.00    +0.000 C 
ENDBRANCH  11  15
BRANCH   6  16
ATOM     16  C   UNL     1      53.875  49.593  35.160  0.00  0.00    +0.000 C 
BRANCH  16  17
ATOM     17  O   UNL     1      53.519  49.116  33.860  0.00  0.00    +0.000 OA
ATOM     18  C   UNL     1      53.032  47.779  33.880  0.00  0.00    +0.000 C 
ENDBRANCH  16  17
ENDBRANCH   6  16
BRANCH  10  19
ATOM     19  C   UNL     1      49.458  51.055  34.093  0.00  0.00    +0.000 C 
BRANCH  19  20
ATOM     20  C   UNL     1      48.485  52.172  34.537  0.00  0.00    +0.000 C 
BRANCH  20  21
ATOM     21  N   UNL     1      49.204  53.464  34.590  0.00  0.00    +0.000 NA
ATOM     22  H   UNL     1      50.147  53.329  34.951  0.00  0.00    +0.000 HD
ATOM     23  H   UNL     1      48.741  54.140  35.193  0.00  0.00    +0.000 HD
ENDBRANCH  20  21
BRANCH  20  24
ATOM     24  C   UNL     1      47.822  51.927  35.917  0.00  0.00    +0.000 C 
BRANCH  24  28
ATOM     25  F   UNL     1      46.321  50.604  37.955  0.00  0.00    +0.000 F 
ATOM     26  F   UNL     1      43.497  52.379  33.648  0.00  0.00    +0.000 F 
ATOM     27  F   UNL     1      42.222  51.098  35.704  0.00  0.00    +0.000 F 
ATOM     28  C   UNL     1      46.320  51.701  35.846  0.00  0.00    +0.000 A 
ATOM     29  C   UNL     1      45.643  51.049  36.888  0.00  0.00    +0.000 A 
ATOM     30  C   UNL     1      45.574  52.143  34.742  0.00  0.00    +0.000 A 
ATOM     31  C   UNL     1      44.194  51.939  34.704  0.00  0.00    +0.000 A 
ATOM     32  C   UNL     1      44.266  50.841  36.848  0.00  0.00    +0.000 A 
ATOM     33  C   UNL     1      43.548  51.292  35.749  0.00  0.00    +0.000 A 
ENDBRANCH  24  28
ENDBRANCH  20  24
ENDBRANCH  19  20
ENDBRANCH  10  19
TORSDOF 8
ENDMDL
MODEL 4
REMARK VINA RESULT:      -7.0     11.330     14.776
REMARK  Name = 9981241
REMARK  9 active torsions:
REMARK  status: ('A' for Active; 'I' for Inactive)
REMARK    1  A    between atoms: O_7  and  C_18
REMARK    2  A    between atoms: O_7  and  C_26
REMARK    3  A    between atoms: N_13  and  C_21
REMARK    4  A    between atoms: C_14  and  C_18
REMARK    5  A    between atoms: C_19  and  C_20
REMARK    6  A    between atoms: C_20  and  C_21
REMARK    7  A    between atoms: C_21  and  C_22
REMARK    8  A    between atoms: C_22  and  C_24
REMARK    9  A    between atoms: C_23  and  C_25
REMARK                            x       y       z     vdW  Elec       q    Type
REMARK                         _______ _______ _______ _____ _____    ______ ____
ROOT
ATOM      1  O   UNL     1      37.830  49.409  50.582  0.00  0.00    +0.000 OA
ATOM      2  N   UNL     1      36.360  51.146  50.293  0.00  0.00    +0.000 N 
ATOM      3  N   UNL     1      36.636  53.836  50.756  0.00  0.00    +0.000 N 
ATOM      4  N   UNL     1      37.111  53.718  52.876  0.00  0.00    +0.000 NA
ATOM      5  N   UNL     1      36.907  55.110  51.069  0.00  0.00    +0.000 NA
ATOM      6  C   UNL     1      36.461  51.533  51.731  0.00  0.00    +0.000 C 
ATOM      7  C   UNL     1      35.604  52.072  49.437  0.00  0.00    +0.000 C 
ATOM      8  C   UNL     1      36.759  53.003  51.827  0.00  0.00    +0.000 A 
ATOM      9  C   UNL     1      36.294  53.433  49.409  0.00  0.00    +0.000 C 
ATOM     10  C   UNL     1      37.078  50.038  49.840  0.00  0.00    +0.000 C 
ATOM     11  C   UNL     1      37.210  55.018  52.384  0.00  0.00    +0.000 A 
ENDROOT
BRANCH  11  15
ATOM     12  F   UNL     1      36.551  57.006  53.555  0.00  0.00    +0.000 F 
ATOM     13  F   UNL     1      38.524  57.001  52.629  0.00  0.00    +0.000 F 
ATOM     14  F   UNL     1      38.158  55.820  54.428  0.00  0.00    +0.000 F 
ATOM     15  C   UNL     1      37.606  56.203  53.243  0.00  0.00    +0.000 C 
ENDBRANCH  11  15
BRANCH   6  16
ATOM     16  C   UNL     1      35.165  51.223  52.524  0.00  0.00    +0.000 C 
BRANCH  16  17
ATOM     17  O   UNL     1      34.557  49.981  52.160  0.00  0.00    +0.000 OA
ATOM     18  C   UNL     1      35.078  48.879  52.892  0.00  0.00    +0.000 C 
ENDBRANCH  16  17
ENDBRANCH   6  16
BRANCH  10  19
ATOM     19  C   UNL     1      36.910  49.641  48.373  0.00  0.00    +0.000 C 
BRANCH  19  20
ATOM     20  C   UNL     1      35.849  48.548  48.102  0.00  0.00    +0.000 C 
BRANCH  20  21
ATOM     21  N   UNL     1      35.777  47.630  49.260  0.00  0.00    +0.000 NA
ATOM     22  H   UNL     1      35.222  48.045  50.007  0.00  0.00    +0.000 HD
ATOM     23  H   UNL     1      36.695  47.419  49.644  0.00  0.00    +0.000 HD
ENDBRANCH  20  21
BRANCH  20  24
ATOM     24  C   UNL     1      36.115  47.704  46.829  0.00  0.00    +0.000 C 
BRANCH  24  28
ATOM     25  F   UNL     1      38.904  47.494  46.250  0.00  0.00    +0.000 F 
ATOM     26  F   UNL     1      36.029  50.862  43.077  0.00  0.00    +0.000 F 
ATOM     27  F   UNL     1      38.714  50.527  42.661  0.00  0.00    +0.000 F 
ATOM     28  C   UNL     1      36.805  48.473  45.714  0.00  0.00    +0.000 A 
ATOM     29  C   UNL     1      38.179  48.317  45.479  0.00  0.00    +0.000 A 
ATOM     30  C   UNL     1      36.085  49.353  44.890  0.00  0.00    +0.000 A 
ATOM     31  C   UNL     1      36.735  50.038  43.862  0.00  0.00    +0.000 A 
ATOM     32  C   UNL     1      38.830  49.004  44.456  0.00  0.00    +0.000 A 
ATOM     33  C   UNL     1      38.096  49.863  43.649  0.00  0.00    +0.000 A 
ENDBRANCH  24  28
ENDBRANCH  20  24
ENDBRANCH  19  20
ENDBRANCH  10  19
TORSDOF 8
ENDMDL
MODEL 5
REMARK VINA RESULT:      -6.2     17.648     19.890
REMARK  Name = 9981241
REMARK  9 active torsions:
REMARK  status: ('A' for Active; 'I' for Inactive)
REMARK    1  A    between atoms: O_7  and  C_18
REMARK    2  A    between atoms: O_7  and  C_26
REMARK    3  A    between atoms: N_13  and  C_21
REMARK    4  A    between atoms: C_14  and  C_18
REMARK    5  A    between atoms: C_19  and  C_20
REMARK    6  A    between atoms: C_20  and  C_21
REMARK    7  A    between atoms: C_21  and  C_22
REMARK    8  A    between atoms: C_22  and  C_24
REMARK    9  A    between atoms: C_23  and  C_25
REMARK                            x       y       z     vdW  Elec       q    Type
REMARK                         _______ _______ _______ _____ _____    ______ ____
ROOT
ATOM      1  O   UNL     1      28.736  67.155  42.756  0.00  0.00    +0.000 OA
ATOM      2  N   UNL     1      30.305  65.835  41.728  0.00  0.00    +0.000 N 
ATOM      3  N   UNL     1      30.663  65.187  39.086  0.00  0.00    +0.000 N 
ATOM      4  N   UNL     1      28.712  64.286  38.742  0.00  0.00    +0.000 NA
ATOM      5  N   UNL     1      30.684  64.931  37.772  0.00  0.00    +0.000 NA
ATOM      6  C   UNL     1      29.250  64.955  41.144  0.00  0.00    +0.000 C 
ATOM      7  C   UNL     1      31.675  65.579  41.263  0.00  0.00    +0.000 C 
ATOM      8  C   UNL     1      29.491  64.809  39.668  0.00  0.00    +0.000 A 
ATOM      9  C   UNL     1      31.769  65.832  39.761  0.00  0.00    +0.000 C 
ATOM     10  C   UNL     1      29.919  66.897  42.548  0.00  0.00    +0.000 C 
ATOM     11  C   UNL     1      29.464  64.382  37.573  0.00  0.00    +0.000 A 
ENDROOT
BRANCH  11  15
ATOM     12  F   UNL     1      29.335  64.731  35.202  0.00  0.00    +0.000 F 
ATOM     13  F   UNL     1      27.603  63.833  36.174  0.00  0.00    +0.000 F 
ATOM     14  F   UNL     1      29.432  62.670  35.903  0.00  0.00    +0.000 F 
ATOM     15  C   UNL     1      28.963  63.909  36.223  0.00  0.00    +0.000 C 
ENDBRANCH  11  15
BRANCH   6  16
ATOM     16  C   UNL     1      29.219  63.548  41.797  0.00  0.00    +0.000 C 
BRANCH  16  17
ATOM     17  O   UNL     1      29.434  63.571  43.211  0.00  0.00    +0.000 OA
ATOM     18  C   UNL     1      30.576  62.820  43.605  0.00  0.00    +0.000 C 
ENDBRANCH  16  17
ENDBRANCH   6  16
BRANCH  10  19
ATOM     19  C   UNL     1      31.029  67.746  43.170  0.00  0.00    +0.000 C 
BRANCH  19  20
ATOM     20  C   UNL     1      31.319  69.084  42.449  0.00  0.00    +0.000 C 
BRANCH  20  21
ATOM     21  N   UNL     1      30.513  69.164  41.211  0.00  0.00    +0.000 NA
ATOM     22  H   UNL     1      29.874  69.956  41.254  0.00  0.00    +0.000 HD
ATOM     23  H   UNL     1      29.953  68.328  41.059  0.00  0.00    +0.000 HD
ENDBRANCH  20  21
BRANCH  20  24
ATOM     24  C   UNL     1      32.809  69.295  42.074  0.00  0.00    +0.000 C 
BRANCH  24  28
ATOM     25  F   UNL     1      33.077  72.139  42.072  0.00  0.00    +0.000 F 
ATOM     26  F   UNL     1      35.582  69.483  46.115  0.00  0.00    +0.000 F 
ATOM     27  F   UNL     1      35.721  72.212  45.961  0.00  0.00    +0.000 F 
ATOM     28  C   UNL     1      33.601  70.069  43.116  0.00  0.00    +0.000 A 
ATOM     29  C   UNL     1      33.685  71.468  43.060  0.00  0.00    +0.000 A 
ATOM     30  C   UNL     1      34.261  69.403  44.162  0.00  0.00    +0.000 A 
ATOM     31  C   UNL     1      34.969  70.133  45.117  0.00  0.00    +0.000 A 
ATOM     32  C   UNL     1      34.397  72.196  44.011  0.00  0.00    +0.000 A 
ATOM     33  C   UNL     1      35.036  71.518  45.040  0.00  0.00    +0.000 A 
ENDBRANCH  24  28
ENDBRANCH  20  24
ENDBRANCH  19  20
ENDBRANCH  10  19
TORSDOF 8
ENDMDL
MODEL 6
REMARK VINA RESULT:      -6.2     19.889     22.219
REMARK  Name = 9981241
REMARK  9 active torsions:
REMARK  status: ('A' for Active; 'I' for Inactive)
REMARK    1  A    between atoms: O_7  and  C_18
REMARK    2  A    between atoms: O_7  and  C_26
REMARK    3  A    between atoms: N_13  and  C_21
REMARK    4  A    between atoms: C_14  and  C_18
REMARK    5  A    between atoms: C_19  and  C_20
REMARK    6  A    between atoms: C_20  and  C_21
REMARK    7  A    between atoms: C_21  and  C_22
REMARK    8  A    between atoms: C_22  and  C_24
REMARK    9  A    between atoms: C_23  and  C_25
REMARK                            x       y       z     vdW  Elec       q    Type
REMARK                         _______ _______ _______ _____ _____    ______ ____
ROOT
ATOM      1  O   UNL     1      51.906  70.925  39.739  0.00  0.00    +0.000 OA
ATOM      2  N   UNL     1      50.079  70.547  41.074  0.00  0.00    +0.000 N 
ATOM      3  N   UNL     1      48.173  68.575  41.003  0.00  0.00    +0.000 N 
ATOM      4  N   UNL     1      47.451  68.941  38.983  0.00  0.00    +0.000 NA
ATOM      5  N   UNL     1      47.299  67.577  40.816  0.00  0.00    +0.000 NA
ATOM      6  C   UNL     1      49.153  70.603  39.903  0.00  0.00    +0.000 C 
ATOM      7  C   UNL     1      49.470  70.134  42.346  0.00  0.00    +0.000 C 
ATOM      8  C   UNL     1      48.270  69.388  39.914  0.00  0.00    +0.000 A 
ATOM      9  C   UNL     1      48.933  68.710  42.227  0.00  0.00    +0.000 C 
ATOM     10  C   UNL     1      51.444  70.753  40.865  0.00  0.00    +0.000 C 
ATOM     11  C   UNL     1      46.869  67.813  39.556  0.00  0.00    +0.000 A 
ENDROOT
BRANCH  11  15
ATOM     12  F   UNL     1      46.381  65.785  38.368  0.00  0.00    +0.000 F 
ATOM     13  F   UNL     1      45.306  67.580  37.760  0.00  0.00    +0.000 F 
ATOM     14  F   UNL     1      44.812  66.595  39.645  0.00  0.00    +0.000 F 
ATOM     15  C   UNL     1      45.851  66.949  38.838  0.00  0.00    +0.000 C 
ENDBRANCH  11  15
BRANCH   6  16
ATOM     16  C   UNL     1      48.268  71.877  39.904  0.00  0.00    +0.000 C 
BRANCH  16  17
ATOM     17  O   UNL     1      48.222  72.541  38.638  0.00  0.00    +0.000 OA
ATOM     18  C   UNL     1      49.502  72.987  38.205  0.00  0.00    +0.000 C 
ENDBRANCH  16  17
ENDBRANCH   6  16
BRANCH  10  19
ATOM     19  C   UNL     1      52.355  70.739  42.093  0.00  0.00    +0.000 C 
BRANCH  19  20
ATOM     20  C   UNL     1      53.853  70.490  41.801  0.00  0.00    +0.000 C 
BRANCH  20  21
ATOM     21  N   UNL     1      54.328  69.335  42.595  0.00  0.00    +0.000 NA
ATOM     22  H   UNL     1      54.098  69.464  43.579  0.00  0.00    +0.000 HD
ATOM     23  H   UNL     1      55.335  69.210  42.532  0.00  0.00    +0.000 HD
ENDBRANCH  20  21
BRANCH  20  24
ATOM     24  C   UNL     1      54.772  71.701  42.107  0.00  0.00    +0.000 C 
BRANCH  24  28
ATOM     25  F   UNL     1      55.199  71.774  39.284  0.00  0.00    +0.000 F 
ATOM     26  F   UNL     1      59.652  71.310  42.387  0.00  0.00    +0.000 F 
ATOM     27  F   UNL     1      59.872  71.408  39.660  0.00  0.00    +0.000 F 
ATOM     28  C   UNL     1      56.144  71.612  41.459  0.00  0.00    +0.000 A 
ATOM     29  C   UNL     1      56.283  71.662  40.064  0.00  0.00    +0.000 A 
ATOM     30  C   UNL     1      57.304  71.484  42.240  0.00  0.00    +0.000 A 
ATOM     31  C   UNL     1      58.556  71.419  41.626  0.00  0.00    +0.000 A 
ATOM     32  C   UNL     1      57.532  71.592  39.451  0.00  0.00    +0.000 A 
ATOM     33  C   UNL     1      58.666  71.473  40.242  0.00  0.00    +0.000 A 
ENDBRANCH  24  28
ENDBRANCH  20  24
ENDBRANCH  19  20
ENDBRANCH  10  19
TORSDOF 8
ENDMDL
MODEL 7
REMARK VINA RESULT:      -6.1     18.312     19.981
REMARK  Name = 9981241
REMARK  9 active torsions:
REMARK  status: ('A' for Active; 'I' for Inactive)
REMARK    1  A    between atoms: O_7  and  C_18
REMARK    2  A    between atoms: O_7  and  C_26
REMARK    3  A    between atoms: N_13  and  C_21
REMARK    4  A    between atoms: C_14  and  C_18
REMARK    5  A    between atoms: C_19  and  C_20
REMARK    6  A    between atoms: C_20  and  C_21
REMARK    7  A    between atoms: C_21  and  C_22
REMARK    8  A    between atoms: C_22  and  C_24
REMARK    9  A    between atoms: C_23  and  C_25
REMARK                            x       y       z     vdW  Elec       q    Type
REMARK                         _______ _______ _______ _____ _____    ______ ____
ROOT
ATOM      1  O   UNL     1      29.339  66.981  42.306  0.00  0.00    +0.000 OA
ATOM      2  N   UNL     1      30.519  65.836  40.706  0.00  0.00    +0.000 N 
ATOM      3  N   UNL     1      30.272  65.791  37.974  0.00  0.00    +0.000 N 
ATOM      4  N   UNL     1      28.205  65.116  37.881  0.00  0.00    +0.000 NA
ATOM      5  N   UNL     1      30.004  65.842  36.662  0.00  0.00    +0.000 NA
ATOM      6  C   UNL     1      29.279  65.182  40.194  0.00  0.00    +0.000 C 
ATOM      7  C   UNL     1      31.733  65.609  39.910  0.00  0.00    +0.000 C 
ATOM      8  C   UNL     1      29.204  65.363  38.704  0.00  0.00    +0.000 A 
ATOM      9  C   UNL     1      31.554  66.193  38.512  0.00  0.00    +0.000 C 
ATOM     10  C   UNL     1      30.422  66.705  41.796  0.00  0.00    +0.000 C 
ATOM     11  C   UNL     1      28.716  65.431  36.623  0.00  0.00    +0.000 A 
ENDROOT
BRANCH  11  15
ATOM     12  F   UNL     1      28.684  65.090  34.248  0.00  0.00    +0.000 F 
ATOM     13  F   UNL     1      27.190  66.440  35.082  0.00  0.00    +0.000 F 
ATOM     14  F   UNL     1      27.014  64.286  35.394  0.00  0.00    +0.000 F 
ATOM     15  C   UNL     1      27.909  65.312  35.346  0.00  0.00    +0.000 C 
ENDBRANCH  11  15
BRANCH   6  16
ATOM     16  C   UNL     1      29.224  63.667  40.526  0.00  0.00    +0.000 C 
BRANCH  16  17
ATOM     17  O   UNL     1      28.714  63.388  41.832  0.00  0.00    +0.000 OA
ATOM     18  C   UNL     1      29.740  63.074  42.767  0.00  0.00    +0.000 C 
ENDBRANCH  16  17
ENDBRANCH   6  16
BRANCH  10  19
ATOM     19  C   UNL     1      31.719  67.317  42.325  0.00  0.00    +0.000 C 
BRANCH  19  20
ATOM     20  C   UNL     1      32.465  66.471  43.383  0.00  0.00    +0.000 C 
BRANCH  20  21
ATOM     21  N   UNL     1      31.525  66.077  44.455  0.00  0.00    +0.000 NA
ATOM     22  H   UNL     1      30.607  65.872  44.064  0.00  0.00    +0.000 HD
ATOM     23  H   UNL     1      31.403  66.809  45.151  0.00  0.00    +0.000 HD
ENDBRANCH  20  21
BRANCH  20  24
ATOM     24  C   UNL     1      33.674  67.189  44.037  0.00  0.00    +0.000 C 
BRANCH  24  28
ATOM     25  F   UNL     1      32.558  68.598  46.257  0.00  0.00    +0.000 F 
ATOM     26  F   UNL     1      34.258  71.645  42.073  0.00  0.00    +0.000 F 
ATOM     27  F   UNL     1      33.172  72.826  44.291  0.00  0.00    +0.000 F 
ATOM     28  C   UNL     1      33.535  68.702  44.092  0.00  0.00    +0.000 A 
ATOM     29  C   UNL     1      32.984  69.331  45.218  0.00  0.00    +0.000 A 
ATOM     30  C   UNL     1      33.959  69.506  43.021  0.00  0.00    +0.000 A 
ATOM     31  C   UNL     1      33.836  70.894  43.098  0.00  0.00    +0.000 A 
ATOM     32  C   UNL     1      32.856  70.717  45.293  0.00  0.00    +0.000 A 
ATOM     33  C   UNL     1      33.288  71.492  44.225  0.00  0.00    +0.000 A 
ENDBRANCH  24  28
ENDBRANCH  20  24
ENDBRANCH  19  20
ENDBRANCH  10  19
TORSDOF 8
ENDMDL
MODEL 8
REMARK VINA RESULT:      -6.0     17.608     20.311
REMARK  Name = 9981241
REMARK  9 active torsions:
REMARK  status: ('A' for Active; 'I' for Inactive)
REMARK    1  A    between atoms: O_7  and  C_18
REMARK    2  A    between atoms: O_7  and  C_26
REMARK    3  A    between atoms: N_13  and  C_21
REMARK    4  A    between atoms: C_14  and  C_18
REMARK    5  A    between atoms: C_19  and  C_20
REMARK    6  A    between atoms: C_20  and  C_21
REMARK    7  A    between atoms: C_21  and  C_22
REMARK    8  A    between atoms: C_22  and  C_24
REMARK    9  A    between atoms: C_23  and  C_25
REMARK                            x       y       z     vdW  Elec       q    Type
REMARK                         _______ _______ _______ _____ _____    ______ ____
ROOT
ATOM      1  O   UNL     1      28.877  67.237  42.582  0.00  0.00    +0.000 OA
ATOM      2  N   UNL     1      30.378  65.829  41.570  0.00  0.00    +0.000 N 
ATOM      3  N   UNL     1      30.686  65.113  38.939  0.00  0.00    +0.000 N 
ATOM      4  N   UNL     1      28.696  64.290  38.628  0.00  0.00    +0.000 NA
ATOM      5  N   UNL     1      30.686  64.829  37.630  0.00  0.00    +0.000 NA
ATOM      6  C   UNL     1      29.282  64.984  41.012  0.00  0.00    +0.000 C 
ATOM      7  C   UNL     1      31.733  65.504  41.100  0.00  0.00    +0.000 C 
ATOM      8  C   UNL     1      29.504  64.798  39.537  0.00  0.00    +0.000 A 
ATOM      9  C   UNL     1      31.825  65.722  39.592  0.00  0.00    +0.000 C 
ATOM     10  C   UNL     1      30.046  66.923  42.371  0.00  0.00    +0.000 C 
ATOM     11  C   UNL     1      29.441  64.331  37.452  0.00  0.00    +0.000 A 
ENDROOT
BRANCH  11  15
ATOM     12  F   UNL     1      29.408  62.638  35.750  0.00  0.00    +0.000 F 
ATOM     13  F   UNL     1      29.215  64.709  35.101  0.00  0.00    +0.000 F 
ATOM     14  F   UNL     1      27.553  63.721  36.115  0.00  0.00    +0.000 F 
ATOM     15  C   UNL     1      28.909  63.852  36.115  0.00  0.00    +0.000 C 
ENDBRANCH  11  15
BRANCH   6  16
ATOM     16  C   UNL     1      29.195  63.593  41.694  0.00  0.00    +0.000 C 
BRANCH  16  17
ATOM     17  O   UNL     1      29.374  63.641  43.112  0.00  0.00    +0.000 OA
ATOM     18  C   UNL     1      30.463  62.842  43.556  0.00  0.00    +0.000 C 
ENDBRANCH  16  17
ENDBRANCH   6  16
BRANCH  10  19
ATOM     19  C   UNL     1      31.197  67.736  42.967  0.00  0.00    +0.000 C 
BRANCH  19  20
ATOM     20  C   UNL     1      31.321  69.186  42.443  0.00  0.00    +0.000 C 
BRANCH  20  21
ATOM     21  N   UNL     1      30.019  69.875  42.580  0.00  0.00    +0.000 NA
ATOM     22  H   UNL     1      30.106  70.675  43.205  0.00  0.00    +0.000 HD
ATOM     23  H   UNL     1      29.297  69.268  42.960  0.00  0.00    +0.000 HD
ENDBRANCH  20  21
BRANCH  20  24
ATOM     24  C   UNL     1      31.774  69.292  40.964  0.00  0.00    +0.000 C 
BRANCH  24  28
ATOM     25  F   UNL     1      31.206  71.997  40.243  0.00  0.00    +0.000 F 
ATOM     26  F   UNL     1      28.060  68.180  37.960  0.00  0.00    +0.000 F 
ATOM     27  F   UNL     1      27.667  70.825  37.376  0.00  0.00    +0.000 F 
ATOM     28  C   UNL     1      30.663  69.695  40.007  0.00  0.00    +0.000 A 
ATOM     29  C   UNL     1      30.443  71.043  39.690  0.00  0.00    +0.000 A 
ATOM     30  C   UNL     1      29.835  68.728  39.414  0.00  0.00    +0.000 A 
ATOM     31  C   UNL     1      28.831  69.117  38.527  0.00  0.00    +0.000 A 
ATOM     32  C   UNL     1      29.437  71.433  38.808  0.00  0.00    +0.000 A 
ATOM     33  C   UNL     1      28.635  70.459  38.228  0.00  0.00    +0.000 A 
ENDBRANCH  24  28
ENDBRANCH  20  24
ENDBRANCH  19  20
ENDBRANCH  10  19
TORSDOF 8
ENDMDL
MODEL 9
REMARK VINA RESULT:      -6.0     17.765     20.769
REMARK  Name = 9981241
REMARK  9 active torsions:
REMARK  status: ('A' for Active; 'I' for Inactive)
REMARK    1  A    between atoms: O_7  and  C_18
REMARK    2  A    between atoms: O_7  and  C_26
REMARK    3  A    between atoms: N_13  and  C_21
REMARK    4  A    between atoms: C_14  and  C_18
REMARK    5  A    between atoms: C_19  and  C_20
REMARK    6  A    between atoms: C_20  and  C_21
REMARK    7  A    between atoms: C_21  and  C_22
REMARK    8  A    between atoms: C_22  and  C_24
REMARK    9  A    between atoms: C_23  and  C_25
REMARK                            x       y       z     vdW  Elec       q    Type
REMARK                         _______ _______ _______ _____ _____    ______ ____
ROOT
ATOM      1  O   UNL     1      50.167  67.451  38.444  0.00  0.00    +0.000 OA
ATOM      2  N   UNL     1      50.673  68.676  40.316  0.00  0.00    +0.000 N 
ATOM      3  N   UNL     1      49.452  70.873  41.416  0.00  0.00    +0.000 N 
ATOM      4  N   UNL     1      49.626  72.194  39.696  0.00  0.00    +0.000 NA
ATOM      5  N   UNL     1      48.774  71.960  41.809  0.00  0.00    +0.000 NA
ATOM      6  C   UNL     1      50.794  69.933  39.519  0.00  0.00    +0.000 C 
ATOM      7  C   UNL     1      50.739  68.841  41.776  0.00  0.00    +0.000 C 
ATOM      8  C   UNL     1      49.957  71.005  40.159  0.00  0.00    +0.000 A 
ATOM      9  C   UNL     1      49.572  69.699  42.254  0.00  0.00    +0.000 C 
ATOM     10  C   UNL     1      50.380  67.482  39.654  0.00  0.00    +0.000 C 
ATOM     11  C   UNL     1      48.883  72.764  40.727  0.00  0.00    +0.000 A 
ENDROOT
BRANCH  11  15
ATOM     12  F   UNL     1      47.408  74.410  41.662  0.00  0.00    +0.000 F 
ATOM     13  F   UNL     1      47.566  74.332  39.490  0.00  0.00    +0.000 F 
ATOM     14  F   UNL     1      49.213  75.133  40.679  0.00  0.00    +0.000 F 
ATOM     15  C   UNL     1      48.272  74.149  40.642  0.00  0.00    +0.000 C 
ENDBRANCH  11  15
BRANCH   6  16
ATOM     16  C   UNL     1      52.259  70.428  39.407  0.00  0.00    +0.000 C 
BRANCH  16  17
ATOM     17  O   UNL     1      52.446  71.435  38.408  0.00  0.00    +0.000 OA
ATOM     18  C   UNL     1      52.229  70.947  37.089  0.00  0.00    +0.000 C 
ENDBRANCH  16  17
ENDBRANCH   6  16
BRANCH  10  19
ATOM     19  C   UNL     1      50.314  66.207  40.496  0.00  0.00    +0.000 C 
BRANCH  19  20
ATOM     20  C   UNL     1      48.923  65.535  40.568  0.00  0.00    +0.000 C 
BRANCH  20  21
ATOM     21  N   UNL     1      48.690  65.023  41.936  0.00  0.00    +0.000 NA
ATOM     22  H   UNL     1      47.819  65.396  42.311  0.00  0.00    +0.000 HD
ATOM     23  H   UNL     1      49.435  65.285  42.579  0.00  0.00    +0.000 HD
ENDBRANCH  20  21
BRANCH  20  24
ATOM     24  C   UNL     1      48.729  64.363  39.571  0.00  0.00    +0.000 C 
BRANCH  24  28
ATOM     25  F   UNL     1      48.497  62.875  37.145  0.00  0.00    +0.000 F 
ATOM     26  F   UNL     1      44.792  66.790  37.938  0.00  0.00    +0.000 F 
ATOM     27  F   UNL     1      44.717  65.254  35.673  0.00  0.00    +0.000 F 
ATOM     28  C   UNL     1      47.655  64.616  38.526  0.00  0.00    +0.000 A 
ATOM     29  C   UNL     1      47.593  63.842  37.359  0.00  0.00    +0.000 A 
ATOM     30  C   UNL     1      46.695  65.626  38.707  0.00  0.00    +0.000 A 
ATOM     31  C   UNL     1      45.707  65.831  37.742  0.00  0.00    +0.000 A 
ATOM     32  C   UNL     1      46.610  64.050  36.393  0.00  0.00    +0.000 A 
ATOM     33  C   UNL     1      45.668  65.049  36.596  0.00  0.00    +0.000 A 
ENDBRANCH  24  28
ENDBRANCH  20  24
ENDBRANCH  19  20
ENDBRANCH  10  19
TORSDOF 8
ENDMDL
