MODEL 1
REMARK VINA RESULT:      -8.5      0.000      0.000
REMARK  Name = 10127139
REMARK  8 active torsions:
REMARK  status: ('A' for Active; 'I' for Inactive)
REMARK    1  A    between atoms: N_8  and  C_18
REMARK    2  A    between atoms: C_9  and  C_12
REMARK    3  A    between atoms: C_12  and  C_17
REMARK    4  A    between atoms: C_14  and  C_15
REMARK    5  A    between atoms: C_15  and  C_18
REMARK    6  A    between atoms: C_16  and  C_20
REMARK    7  A    between atoms: C_18  and  C_19
REMARK    8  A    between atoms: C_19  and  C_23
REMARK                            x       y       z     vdW  Elec       q    Type
REMARK                         _______ _______ _______ _____ _____    ______ ____
ROOT
ATOM      1  O   UNL     1      50.425  51.274  34.592  0.00  0.00    +0.000 OA
ATOM      2  N   UNL     1      49.735  49.919  36.299  0.00  0.00    +0.000 N 
ATOM      3  N   UNL     1      50.222  50.267  39.003  0.00  0.00    +0.000 N 
ATOM      4  N   UNL     1      50.659  48.172  39.428  0.00  0.00    +0.000 NA
ATOM      5  N   UNL     1      50.898  48.912  40.564  0.00  0.00    +0.000 NA
ATOM      6  C   UNL     1      49.048  51.048  36.983  0.00  0.00    +0.000 C 
ATOM      7  C   UNL     1      49.831  51.435  38.248  0.00  0.00    +0.000 C 
ATOM      8  C   UNL     1      49.896  48.684  37.078  0.00  0.00    +0.000 C 
ATOM      9  C   UNL     1      50.267  49.000  38.484  0.00  0.00    +0.000 A 
ATOM     10  C   UNL     1      50.333  50.138  35.063  0.00  0.00    +0.000 C 
ATOM     11  C   UNL     1      50.648  50.178  40.297  0.00  0.00    +0.000 A 
ATOM     12  C   UNL     1      50.802  51.319  41.226  0.00  0.00    +0.000 C 
ENDROOT
BRANCH   6  13
ATOM     13  C   UNL     1      47.559  50.749  37.318  0.00  0.00    +0.000 C 
BRANCH  13  14
ATOM     14  C   UNL     1      46.616  51.331  36.291  0.00  0.00    +0.000 A 
ATOM     15  C   UNL     1      45.229  51.188  36.437  0.00  0.00    +0.000 A 
ATOM     16  C   UNL     1      47.117  51.960  35.143  0.00  0.00    +0.000 A 
ATOM     17  C   UNL     1      44.366  51.609  35.424  0.00  0.00    +0.000 A 
ATOM     18  C   UNL     1      46.251  52.387  34.136  0.00  0.00    +0.000 A 
ATOM     19  C   UNL     1      44.877  52.194  34.269  0.00  0.00    +0.000 A 
ENDBRANCH  13  14
ENDBRANCH   6  13
BRANCH  10  20
ATOM     20  C   UNL     1      50.804  48.942  34.239  0.00  0.00    +0.000 C 
BRANCH  20  21
ATOM     21  C   UNL     1      52.324  48.705  34.164  0.00  0.00    +0.000 C 
BRANCH  21  22
ATOM     22  N   UNL     1      52.678  47.763  33.090  0.00  0.00    +0.000 NA
ATOM     23  H   UNL     1      53.232  46.991  33.462  0.00  0.00    +0.000 HD
ATOM     24  H   UNL     1      51.832  47.327  32.716  0.00  0.00    +0.000 HD
ENDBRANCH  21  22
BRANCH  21  25
ATOM     25  C   UNL     1      52.984  48.237  35.481  0.00  0.00    +0.000 C 
BRANCH  25  28
ATOM     26  F   UNL     1      57.345  50.381  35.898  0.00  0.00    +0.000 F 
ATOM     27  F   UNL     1      56.400  52.081  37.827  0.00  0.00    +0.000 F 
ATOM     28  C   UNL     1      53.898  49.234  36.159  0.00  0.00    +0.000 A 
ATOM     29  C   UNL     1      55.238  49.331  35.752  0.00  0.00    +0.000 A 
ATOM     30  C   UNL     1      53.422  50.116  37.144  0.00  0.00    +0.000 A 
ATOM     31  C   UNL     1      56.075  50.287  36.316  0.00  0.00    +0.000 A 
ATOM     32  C   UNL     1      54.272  51.070  37.713  0.00  0.00    +0.000 A 
ATOM     33  C   UNL     1      55.594  51.150  37.290  0.00  0.00    +0.000 A 
ENDBRANCH  25  28
ENDBRANCH  21  25
ENDBRANCH  20  21
ENDBRANCH  10  20
TORSDOF 7
ENDMDL
MODEL 2
REMARK VINA RESULT:      -8.4      4.183      7.563
REMARK  Name = 10127139
REMARK  8 active torsions:
REMARK  status: ('A' for Active; 'I' for Inactive)
REMARK    1  A    between atoms: N_8  and  C_18
REMARK    2  A    between atoms: C_9  and  C_12
REMARK    3  A    between atoms: C_12  and  C_17
REMARK    4  A    between atoms: C_14  and  C_15
REMARK    5  A    between atoms: C_15  and  C_18
REMARK    6  A    between atoms: C_16  and  C_20
REMARK    7  A    between atoms: C_18  and  C_19
REMARK    8  A    between atoms: C_19  and  C_23
REMARK                            x       y       z     vdW  Elec       q    Type
REMARK                         _______ _______ _______ _____ _____    ______ ____
ROOT
ATOM      1  O   UNL     1      50.600  52.792  36.064  0.00  0.00    +0.000 OA
ATOM      2  N   UNL     1      50.600  50.548  35.622  0.00  0.00    +0.000 N 
ATOM      3  N   UNL     1      52.811  48.927  35.235  0.00  0.00    +0.000 N 
ATOM      4  N   UNL     1      51.980  47.802  33.560  0.00  0.00    +0.000 NA
ATOM      5  N   UNL     1      53.292  47.423  33.740  0.00  0.00    +0.000 NA
ATOM      6  C   UNL     1      51.461  50.266  36.802  0.00  0.00    +0.000 C 
ATOM      7  C   UNL     1      52.869  49.871  36.327  0.00  0.00    +0.000 C 
ATOM      8  C   UNL     1      50.420  49.447  34.665  0.00  0.00    +0.000 C 
ATOM      9  C   UNL     1      51.703  48.724  34.457  0.00  0.00    +0.000 A 
ATOM     10  C   UNL     1      50.169  51.851  35.392  0.00  0.00    +0.000 C 
ATOM     11  C   UNL     1      53.793  48.117  34.742  0.00  0.00    +0.000 A 
ATOM     12  C   UNL     1      55.179  48.045  35.253  0.00  0.00    +0.000 C 
ENDROOT
BRANCH   6  13
ATOM     13  C   UNL     1      50.869  49.185  37.750  0.00  0.00    +0.000 C 
BRANCH  13  14
ATOM     14  C   UNL     1      49.654  49.685  38.496  0.00  0.00    +0.000 A 
ATOM     15  C   UNL     1      48.516  48.878  38.625  0.00  0.00    +0.000 A 
ATOM     16  C   UNL     1      49.623  50.990  39.008  0.00  0.00    +0.000 A 
ATOM     17  C   UNL     1      47.350  49.387  39.197  0.00  0.00    +0.000 A 
ATOM     18  C   UNL     1      48.458  51.494  39.587  0.00  0.00    +0.000 A 
ATOM     19  C   UNL     1      47.316  50.699  39.664  0.00  0.00    +0.000 A 
ENDBRANCH  13  14
ENDBRANCH   6  13
BRANCH  10  20
ATOM     20  C   UNL     1      49.083  52.106  34.350  0.00  0.00    +0.000 C 
BRANCH  20  21
ATOM     21  C   UNL     1      47.693  52.507  34.880  0.00  0.00    +0.000 C 
BRANCH  21  22
ATOM     22  N   UNL     1      47.688  53.877  35.416  0.00  0.00    +0.000 NA
ATOM     23  H   UNL     1      46.822  54.056  35.927  0.00  0.00    +0.000 HD
ATOM     24  H   UNL     1      48.431  53.983  36.110  0.00  0.00    +0.000 HD
ENDBRANCH  21  22
BRANCH  21  25
ATOM     25  C   UNL     1      47.088  51.552  35.933  0.00  0.00    +0.000 C 
BRANCH  25  28
ATOM     26  F   UNL     1      42.802  52.019  33.653  0.00  0.00    +0.000 F 
ATOM     27  F   UNL     1      41.471  50.936  35.788  0.00  0.00    +0.000 F 
ATOM     28  C   UNL     1      45.580  51.431  35.934  0.00  0.00    +0.000 A 
ATOM     29  C   UNL     1      44.855  51.825  34.798  0.00  0.00    +0.000 A 
ATOM     30  C   UNL     1      44.888  50.870  37.021  0.00  0.00    +0.000 A 
ATOM     31  C   UNL     1      43.475  51.659  34.755  0.00  0.00    +0.000 A 
ATOM     32  C   UNL     1      43.499  50.713  36.973  0.00  0.00    +0.000 A 
ATOM     33  C   UNL     1      42.802  51.107  35.836  0.00  0.00    +0.000 A 
ENDBRANCH  25  28
ENDBRANCH  21  25
ENDBRANCH  20  21
ENDBRANCH  10  20
TORSDOF 7
ENDMDL
MODEL 3
REMARK VINA RESULT:      -7.6      3.556      6.941
REMARK  Name = 10127139
REMARK  8 active torsions:
REMARK  status: ('A' for Active; 'I' for Inactive)
REMARK    1  A    between atoms: N_8  and  C_18
REMARK    2  A    between atoms: C_9  and  C_12
REMARK    3  A    between atoms: C_12  and  C_17
REMARK    4  A    between atoms: C_14  and  C_15
REMARK    5  A    between atoms: C_15  and  C_18
REMARK    6  A    between atoms: C_16  and  C_20
REMARK    7  A    between atoms: C_18  and  C_19
REMARK    8  A    between atoms: C_19  and  C_23
REMARK                            x       y       z     vdW  Elec       q    Type
REMARK                         _______ _______ _______ _____ _____    ______ ____
ROOT
ATOM      1  O   UNL     1      53.210  50.356  38.875  0.00  0.00    +0.000 OA
ATOM      2  N   UNL     1      52.264  51.612  37.215  0.00  0.00    +0.000 N 
ATOM      3  N   UNL     1      53.286  53.926  36.089  0.00  0.00    +0.000 N 
ATOM      4  N   UNL     1      51.390  55.003  36.019  0.00  0.00    +0.000 NA
ATOM      5  N   UNL     1      52.397  55.856  35.625  0.00  0.00    +0.000 NA
ATOM      6  C   UNL     1      53.475  51.485  36.361  0.00  0.00    +0.000 C 
ATOM      7  C   UNL     1      54.208  52.835  36.305  0.00  0.00    +0.000 C 
ATOM      8  C   UNL     1      51.267  52.605  36.792  0.00  0.00    +0.000 C 
ATOM      9  C   UNL     1      51.938  53.844  36.314  0.00  0.00    +0.000 A 
ATOM     10  C   UNL     1      52.217  50.938  38.431  0.00  0.00    +0.000 C 
ATOM     11  C   UNL     1      53.541  55.205  35.685  0.00  0.00    +0.000 A 
ATOM     12  C   UNL     1      54.880  55.752  35.375  0.00  0.00    +0.000 C 
ENDROOT
BRANCH   6  13
ATOM     13  C   UNL     1      53.167  50.958  34.930  0.00  0.00    +0.000 C 
BRANCH  13  14
ATOM     14  C   UNL     1      53.693  49.559  34.712  0.00  0.00    +0.000 A 
ATOM     15  C   UNL     1      53.004  48.660  33.887  0.00  0.00    +0.000 A 
ATOM     16  C   UNL     1      54.840  49.119  35.388  0.00  0.00    +0.000 A 
ATOM     17  C   UNL     1      53.417  47.331  33.790  0.00  0.00    +0.000 A 
ATOM     18  C   UNL     1      55.255  47.791  35.284  0.00  0.00    +0.000 A 
ATOM     19  C   UNL     1      54.533  46.893  34.500  0.00  0.00    +0.000 A 
ENDBRANCH  13  14
ENDBRANCH   6  13
BRANCH  10  20
ATOM     20  C   UNL     1      50.893  50.847  39.184  0.00  0.00    +0.000 C 
BRANCH  20  21
ATOM     21  C   UNL     1      50.308  49.438  39.393  0.00  0.00    +0.000 C 
BRANCH  21  22
ATOM     22  N   UNL     1      51.204  48.587  40.193  0.00  0.00    +0.000 NA
ATOM     23  H   UNL     1      51.345  47.687  39.732  0.00  0.00    +0.000 HD
ATOM     24  H   UNL     1      52.135  49.009  40.240  0.00  0.00    +0.000 HD
ENDBRANCH  21  22
BRANCH  21  25
ATOM     25  C   UNL     1      49.921  48.685  38.100  0.00  0.00    +0.000 C 
BRANCH  25  28
ATOM     26  F   UNL     1      50.058  49.884  33.375  0.00  0.00    +0.000 F 
ATOM     27  F   UNL     1      48.039  51.705  33.709  0.00  0.00    +0.000 F 
ATOM     28  C   UNL     1      49.444  49.542  36.948  0.00  0.00    +0.000 A 
ATOM     29  C   UNL     1      50.002  49.359  35.673  0.00  0.00    +0.000 A 
ATOM     30  C   UNL     1      48.403  50.473  37.107  0.00  0.00    +0.000 A 
ATOM     31  C   UNL     1      49.529  50.089  34.589  0.00  0.00    +0.000 A 
ATOM     32  C   UNL     1      47.938  51.210  36.013  0.00  0.00    +0.000 A 
ATOM     33  C   UNL     1      48.503  51.009  34.759  0.00  0.00    +0.000 A 
ENDBRANCH  25  28
ENDBRANCH  21  25
ENDBRANCH  20  21
ENDBRANCH  10  20
TORSDOF 7
ENDMDL
MODEL 4
REMARK VINA RESULT:      -6.8      4.026      6.888
REMARK  Name = 10127139
REMARK  8 active torsions:
REMARK  status: ('A' for Active; 'I' for Inactive)
REMARK    1  A    between atoms: N_8  and  C_18
REMARK    2  A    between atoms: C_9  and  C_12
REMARK    3  A    between atoms: C_12  and  C_17
REMARK    4  A    between atoms: C_14  and  C_15
REMARK    5  A    between atoms: C_15  and  C_18
REMARK    6  A    between atoms: C_16  and  C_20
REMARK    7  A    between atoms: C_18  and  C_19
REMARK    8  A    between atoms: C_19  and  C_23
REMARK                            x       y       z     vdW  Elec       q    Type
REMARK                         _______ _______ _______ _____ _____    ______ ____
ROOT
ATOM      1  O   UNL     1      53.735  52.182  38.682  0.00  0.00    +0.000 OA
ATOM      2  N   UNL     1      52.690  50.382  39.629  0.00  0.00    +0.000 N 
ATOM      3  N   UNL     1      49.961  49.981  39.879  0.00  0.00    +0.000 N 
ATOM      4  N   UNL     1      50.031  49.198  41.915  0.00  0.00    +0.000 NA
ATOM      5  N   UNL     1      48.713  49.338  41.540  0.00  0.00    +0.000 NA
ATOM      6  C   UNL     1      51.917  50.115  38.386  0.00  0.00    +0.000 C 
ATOM      7  C   UNL     1      50.441  50.482  38.611  0.00  0.00    +0.000 C 
ATOM      8  C   UNL     1      52.264  49.656  40.833  0.00  0.00    +0.000 C 
ATOM      9  C   UNL     1      50.779  49.606  40.912  0.00  0.00    +0.000 A 
ATOM     10  C   UNL     1      53.631  51.406  39.636  0.00  0.00    +0.000 C 
ATOM     11  C   UNL     1      48.678  49.826  40.316  0.00  0.00    +0.000 A 
ATOM     12  C   UNL     1      47.464  50.156  39.538  0.00  0.00    +0.000 C 
ENDROOT
BRANCH   6  13
ATOM     13  C   UNL     1      52.057  48.653  37.877  0.00  0.00    +0.000 C 
BRANCH  13  14
ATOM     14  C   UNL     1      52.279  48.588  36.384  0.00  0.00    +0.000 A 
ATOM     15  C   UNL     1      53.528  48.220  35.866  0.00  0.00    +0.000 A 
ATOM     16  C   UNL     1      51.260  48.963  35.498  0.00  0.00    +0.000 A 
ATOM     17  C   UNL     1      53.772  48.287  34.494  0.00  0.00    +0.000 A 
ATOM     18  C   UNL     1      51.503  49.023  34.125  0.00  0.00    +0.000 A 
ATOM     19  C   UNL     1      52.764  48.703  33.626  0.00  0.00    +0.000 A 
ENDBRANCH  13  14
ENDBRANCH   6  13
BRANCH  10  20
ATOM     20  C   UNL     1      54.606  51.517  40.805  0.00  0.00    +0.000 C 
BRANCH  20  21
ATOM     21  C   UNL     1      54.853  52.927  41.373  0.00  0.00    +0.000 C 
BRANCH  21  22
ATOM     22  N   UNL     1      56.005  53.581  40.732  0.00  0.00    +0.000 NA
ATOM     23  H   UNL     1      56.050  53.332  39.743  0.00  0.00    +0.000 HD
ATOM     24  H   UNL     1      55.881  54.596  40.744  0.00  0.00    +0.000 HD
ENDBRANCH  21  22
BRANCH  21  25
ATOM     25  C   UNL     1      55.024  52.999  42.908  0.00  0.00    +0.000 C 
BRANCH  25  28
ATOM     26  F   UNL     1      54.880  49.338  46.126  0.00  0.00    +0.000 F 
ATOM     27  F   UNL     1      52.140  49.337  46.105  0.00  0.00    +0.000 F 
ATOM     28  C   UNL     1      54.237  51.990  43.714  0.00  0.00    +0.000 A 
ATOM     29  C   UNL     1      54.919  51.076  44.533  0.00  0.00    +0.000 A 
ATOM     30  C   UNL     1      52.831  51.985  43.717  0.00  0.00    +0.000 A 
ATOM     31  C   UNL     1      54.211  50.186  45.333  0.00  0.00    +0.000 A 
ATOM     32  C   UNL     1      52.126  51.082  44.518  0.00  0.00    +0.000 A 
ATOM     33  C   UNL     1      52.824  50.189  45.324  0.00  0.00    +0.000 A 
ENDBRANCH  25  28
ENDBRANCH  21  25
ENDBRANCH  20  21
ENDBRANCH  10  20
TORSDOF 7
ENDMDL
MODEL 5
REMARK VINA RESULT:      -6.8      3.954      7.692
REMARK  Name = 10127139
REMARK  8 active torsions:
REMARK  status: ('A' for Active; 'I' for Inactive)
REMARK    1  A    between atoms: N_8  and  C_18
REMARK    2  A    between atoms: C_9  and  C_12
REMARK    3  A    between atoms: C_12  and  C_17
REMARK    4  A    between atoms: C_14  and  C_15
REMARK    5  A    between atoms: C_15  and  C_18
REMARK    6  A    between atoms: C_16  and  C_20
REMARK    7  A    between atoms: C_18  and  C_19
REMARK    8  A    between atoms: C_19  and  C_23
REMARK                            x       y       z     vdW  Elec       q    Type
REMARK                         _______ _______ _______ _____ _____    ______ ____
ROOT
ATOM      1  O   UNL     1      51.148  52.281  40.907  0.00  0.00    +0.000 OA
ATOM      2  N   UNL     1      53.290  51.707  40.351  0.00  0.00    +0.000 N 
ATOM      3  N   UNL     1      55.455  53.413  40.079  0.00  0.00    +0.000 N 
ATOM      4  N   UNL     1      56.259  52.476  38.281  0.00  0.00    +0.000 NA
ATOM      5  N   UNL     1      56.994  53.608  38.556  0.00  0.00    +0.000 NA
ATOM      6  C   UNL     1      53.831  52.335  41.586  0.00  0.00    +0.000 C 
ATOM      7  C   UNL     1      54.591  53.619  41.219  0.00  0.00    +0.000 C 
ATOM      8  C   UNL     1      54.272  51.327  39.326  0.00  0.00    +0.000 C 
ATOM      9  C   UNL     1      55.320  52.375  39.196  0.00  0.00    +0.000 A 
ATOM     10  C   UNL     1      51.914  51.677  40.151  0.00  0.00    +0.000 C 
ATOM     11  C   UNL     1      56.493  54.178  39.633  0.00  0.00    +0.000 A 
ATOM     12  C   UNL     1      56.963  55.432  40.261  0.00  0.00    +0.000 C 
ENDROOT
BRANCH   6  13
ATOM     13  C   UNL     1      54.727  51.376  42.421  0.00  0.00    +0.000 C 
BRANCH  13  14
ATOM     14  C   UNL     1      54.045  50.919  43.690  0.00  0.00    +0.000 A 
ATOM     15  C   UNL     1      54.800  50.563  44.815  0.00  0.00    +0.000 A 
ATOM     16  C   UNL     1      52.651  50.777  43.734  0.00  0.00    +0.000 A 
ATOM     17  C   UNL     1      54.179  50.016  45.939  0.00  0.00    +0.000 A 
ATOM     18  C   UNL     1      52.031  50.237  44.861  0.00  0.00    +0.000 A 
ATOM     19  C   UNL     1      52.797  49.840  45.956  0.00  0.00    +0.000 A 
ENDBRANCH  13  14
ENDBRANCH   6  13
BRANCH  10  20
ATOM     20  C   UNL     1      51.340  50.813  39.032  0.00  0.00    +0.000 C 
BRANCH  20  21
ATOM     21  C   UNL     1      50.364  49.696  39.447  0.00  0.00    +0.000 C 
BRANCH  21  22
ATOM     22  N   UNL     1      50.741  49.092  40.736  0.00  0.00    +0.000 NA
ATOM     23  H   UNL     1      51.078  49.809  41.379  0.00  0.00    +0.000 HD
ATOM     24  H   UNL     1      49.915  48.695  41.189  0.00  0.00    +0.000 HD
ENDBRANCH  21  22
BRANCH  21  25
ATOM     25  C   UNL     1      50.165  48.572  38.404  0.00  0.00    +0.000 C 
BRANCH  25  28
ATOM     26  F   UNL     1      54.066  48.248  35.497  0.00  0.00    +0.000 F 
ATOM     27  F   UNL     1      52.627  49.159  33.351  0.00  0.00    +0.000 F 
ATOM     28  C   UNL     1      50.821  48.789  37.059  0.00  0.00    +0.000 A 
ATOM     29  C   UNL     1      52.176  48.460  36.890  0.00  0.00    +0.000 A 
ATOM     30  C   UNL     1      50.091  49.248  35.950  0.00  0.00    +0.000 A 
ATOM     31  C   UNL     1      52.778  48.588  35.644  0.00  0.00    +0.000 A 
ATOM     32  C   UNL     1      50.706  49.382  34.701  0.00  0.00    +0.000 A 
ATOM     33  C   UNL     1      52.048  49.046  34.557  0.00  0.00    +0.000 A 
ENDBRANCH  25  28
ENDBRANCH  21  25
ENDBRANCH  20  21
ENDBRANCH  10  20
TORSDOF 7
ENDMDL
MODEL 6
REMARK VINA RESULT:      -6.7      1.530      2.123
REMARK  Name = 10127139
REMARK  8 active torsions:
REMARK  status: ('A' for Active; 'I' for Inactive)
REMARK    1  A    between atoms: N_8  and  C_18
REMARK    2  A    between atoms: C_9  and  C_12
REMARK    3  A    between atoms: C_12  and  C_17
REMARK    4  A    between atoms: C_14  and  C_15
REMARK    5  A    between atoms: C_15  and  C_18
REMARK    6  A    between atoms: C_16  and  C_20
REMARK    7  A    between atoms: C_18  and  C_19
REMARK    8  A    between atoms: C_19  and  C_23
REMARK                            x       y       z     vdW  Elec       q    Type
REMARK                         _______ _______ _______ _____ _____    ______ ____
ROOT
ATOM      1  O   UNL     1      50.549  52.342  36.057  0.00  0.00    +0.000 OA
ATOM      2  N   UNL     1      50.137  50.453  37.278  0.00  0.00    +0.000 N 
ATOM      3  N   UNL     1      50.103  50.229  40.037  0.00  0.00    +0.000 N 
ATOM      4  N   UNL     1      51.167  48.326  40.125  0.00  0.00    +0.000 NA
ATOM      5  N   UNL     1      50.982  48.788  41.409  0.00  0.00    +0.000 NA
ATOM      6  C   UNL     1      49.020  51.110  38.008  0.00  0.00    +0.000 C 
ATOM      7  C   UNL     1      49.443  51.377  39.461  0.00  0.00    +0.000 C 
ATOM      8  C   UNL     1      50.604  49.168  37.815  0.00  0.00    +0.000 C 
ATOM      9  C   UNL     1      50.649  49.211  39.301  0.00  0.00    +0.000 A 
ATOM     10  C   UNL     1      50.788  51.150  36.264  0.00  0.00    +0.000 C 
ATOM     11  C   UNL     1      50.354  49.945  41.349  0.00  0.00    +0.000 A 
ATOM     12  C   UNL     1      49.980  50.801  42.495  0.00  0.00    +0.000 C 
ENDROOT
BRANCH   6  13
ATOM     13  C   UNL     1      47.692  50.303  37.953  0.00  0.00    +0.000 C 
BRANCH  13  14
ATOM     14  C   UNL     1      46.723  50.866  36.940  0.00  0.00    +0.000 A 
ATOM     15  C   UNL     1      47.193  51.516  35.791  0.00  0.00    +0.000 A 
ATOM     16  C   UNL     1      45.342  50.809  37.171  0.00  0.00    +0.000 A 
ATOM     17  C   UNL     1      46.302  52.151  34.924  0.00  0.00    +0.000 A 
ATOM     18  C   UNL     1      44.452  51.439  36.300  0.00  0.00    +0.000 A 
ATOM     19  C   UNL     1      44.934  52.125  35.187  0.00  0.00    +0.000 A 
ENDBRANCH  13  14
ENDBRANCH   6  13
BRANCH  10  20
ATOM     20  C   UNL     1      51.747  50.403  35.341  0.00  0.00    +0.000 C 
BRANCH  20  21
ATOM     21  C   UNL     1      53.206  50.893  35.311  0.00  0.00    +0.000 C 
BRANCH  21  22
ATOM     22  N   UNL     1      53.768  50.856  33.951  0.00  0.00    +0.000 NA
ATOM     23  H   UNL     1      53.054  51.103  33.265  0.00  0.00    +0.000 HD
ATOM     24  H   UNL     1      54.490  51.573  33.852  0.00  0.00    +0.000 HD
ENDBRANCH  21  22
BRANCH  21  25
ATOM     25  C   UNL     1      54.168  50.160  36.273  0.00  0.00    +0.000 C 
BRANCH  25  28
ATOM     26  F   UNL     1      57.275  53.123  38.586  0.00  0.00    +0.000 F 
ATOM     27  F   UNL     1      55.662  53.197  40.799  0.00  0.00    +0.000 F 
ATOM     28  C   UNL     1      54.579  50.922  37.514  0.00  0.00    +0.000 A 
ATOM     29  C   UNL     1      55.778  51.652  37.510  0.00  0.00    +0.000 A 
ATOM     30  C   UNL     1      53.756  50.973  38.652  0.00  0.00    +0.000 A 
ATOM     31  C   UNL     1      56.139  52.413  38.617  0.00  0.00    +0.000 A 
ATOM     32  C   UNL     1      54.129  51.735  39.764  0.00  0.00    +0.000 A 
ATOM     33  C   UNL     1      55.319  52.453  39.736  0.00  0.00    +0.000 A 
ENDBRANCH  25  28
ENDBRANCH  21  25
ENDBRANCH  20  21
ENDBRANCH  10  20
TORSDOF 7
ENDMDL
MODEL 7
REMARK VINA RESULT:      -6.5     18.303     19.868
REMARK  Name = 10127139
REMARK  8 active torsions:
REMARK  status: ('A' for Active; 'I' for Inactive)
REMARK    1  A    between atoms: N_8  and  C_18
REMARK    2  A    between atoms: C_9  and  C_12
REMARK    3  A    between atoms: C_12  and  C_17
REMARK    4  A    between atoms: C_14  and  C_15
REMARK    5  A    between atoms: C_15  and  C_18
REMARK    6  A    between atoms: C_16  and  C_20
REMARK    7  A    between atoms: C_18  and  C_19
REMARK    8  A    between atoms: C_19  and  C_23
REMARK                            x       y       z     vdW  Elec       q    Type
REMARK                         _______ _______ _______ _____ _____    ______ ____
ROOT
ATOM      1  O   UNL     1      52.638  67.023  40.194  0.00  0.00    +0.000 OA
ATOM      2  N   UNL     1      52.523  68.554  38.500  0.00  0.00    +0.000 N 
ATOM      3  N   UNL     1      54.612  69.447  36.916  0.00  0.00    +0.000 N 
ATOM      4  N   UNL     1      54.027  71.548  36.930  0.00  0.00    +0.000 NA
ATOM      5  N   UNL     1      55.239  71.431  36.286  0.00  0.00    +0.000 NA
ATOM      6  C   UNL     1      53.107  67.593  37.526  0.00  0.00    +0.000 C 
ATOM      7  C   UNL     1      54.540  68.026  37.174  0.00  0.00    +0.000 C 
ATOM      8  C   UNL     1      52.435  69.955  38.064  0.00  0.00    +0.000 C 
ATOM      9  C   UNL     1      53.664  70.347  37.323  0.00  0.00    +0.000 A 
ATOM     10  C   UNL     1      52.264  68.131  39.799  0.00  0.00    +0.000 C 
ATOM     11  C   UNL     1      55.595  70.162  36.296  0.00  0.00    +0.000 A 
ATOM     12  C   UNL     1      56.842  69.596  35.737  0.00  0.00    +0.000 C 
ENDROOT
BRANCH   6  13
ATOM     13  C   UNL     1      52.247  67.418  36.243  0.00  0.00    +0.000 C 
BRANCH  13  14
ATOM     14  C   UNL     1      51.437  66.142  36.269  0.00  0.00    +0.000 A 
ATOM     15  C   UNL     1      51.400  65.300  35.151  0.00  0.00    +0.000 A 
ATOM     16  C   UNL     1      50.656  65.821  37.388  0.00  0.00    +0.000 A 
ATOM     17  C   UNL     1      50.550  64.193  35.127  0.00  0.00    +0.000 A 
ATOM     18  C   UNL     1      49.812  64.710  37.365  0.00  0.00    +0.000 A 
ATOM     19  C   UNL     1      49.746  63.907  36.228  0.00  0.00    +0.000 A 
ENDBRANCH  13  14
ENDBRANCH   6  13
BRANCH  10  20
ATOM     20  C   UNL     1      51.430  69.016  40.722  0.00  0.00    +0.000 C 
BRANCH  20  21
ATOM     21  C   UNL     1      52.172  69.705  41.882  0.00  0.00    +0.000 C 
BRANCH  21  22
ATOM     22  N   UNL     1      51.239  70.242  42.885  0.00  0.00    +0.000 NA
ATOM     23  H   UNL     1      51.712  70.368  43.780  0.00  0.00    +0.000 HD
ATOM     24  H   UNL     1      50.935  71.179  42.612  0.00  0.00    +0.000 HD
ENDBRANCH  21  22
BRANCH  21  25
ATOM     25  C   UNL     1      53.159  70.819  41.465  0.00  0.00    +0.000 C 
BRANCH  25  28
ATOM     26  F   UNL     1      56.820  73.128  43.712  0.00  0.00    +0.000 F 
ATOM     27  F   UNL     1      58.131  70.763  44.152  0.00  0.00    +0.000 F 
ATOM     28  C   UNL     1      54.516  70.791  42.132  0.00  0.00    +0.000 A 
ATOM     29  C   UNL     1      55.087  71.990  42.588  0.00  0.00    +0.000 A 
ATOM     30  C   UNL     1      55.194  69.583  42.370  0.00  0.00    +0.000 A 
ATOM     31  C   UNL     1      56.302  71.976  43.264  0.00  0.00    +0.000 A 
ATOM     32  C   UNL     1      56.420  69.578  43.043  0.00  0.00    +0.000 A 
ATOM     33  C   UNL     1      56.963  70.777  43.489  0.00  0.00    +0.000 A 
ENDBRANCH  25  28
ENDBRANCH  21  25
ENDBRANCH  20  21
ENDBRANCH  10  20
TORSDOF 7
ENDMDL
MODEL 8
REMARK VINA RESULT:      -6.4     17.302     19.413
REMARK  Name = 10127139
REMARK  8 active torsions:
REMARK  status: ('A' for Active; 'I' for Inactive)
REMARK    1  A    between atoms: N_8  and  C_18
REMARK    2  A    between atoms: C_9  and  C_12
REMARK    3  A    between atoms: C_12  and  C_17
REMARK    4  A    between atoms: C_14  and  C_15
REMARK    5  A    between atoms: C_15  and  C_18
REMARK    6  A    between atoms: C_16  and  C_20
REMARK    7  A    between atoms: C_18  and  C_19
REMARK    8  A    between atoms: C_19  and  C_23
REMARK                            x       y       z     vdW  Elec       q    Type
REMARK                         _______ _______ _______ _____ _____    ______ ____
ROOT
ATOM      1  O   UNL     1      60.563  66.099  40.574  0.00  0.00    +0.000 OA
ATOM      2  N   UNL     1      58.798  67.321  41.360  0.00  0.00    +0.000 N 
ATOM      3  N   UNL     1      58.719  70.059  41.771  0.00  0.00    +0.000 N 
ATOM      4  N   UNL     1      57.661  69.974  43.677  0.00  0.00    +0.000 NA
ATOM      5  N   UNL     1      58.018  71.280  43.428  0.00  0.00    +0.000 NA
ATOM      6  C   UNL     1      58.807  68.198  40.159  0.00  0.00    +0.000 C 
ATOM      7  C   UNL     1      59.325  69.593  40.544  0.00  0.00    +0.000 C 
ATOM      8  C   UNL     1      57.973  67.770  42.491  0.00  0.00    +0.000 C 
ATOM      9  C   UNL     1      58.104  69.239  42.680  0.00  0.00    +0.000 A 
ATOM     10  C   UNL     1      59.683  66.250  41.425  0.00  0.00    +0.000 C 
ATOM     11  C   UNL     1      58.671  71.323  42.284  0.00  0.00    +0.000 A 
ATOM     12  C   UNL     1      59.259  72.525  41.653  0.00  0.00    +0.000 C 
ENDROOT
BRANCH   6  13
ATOM     13  C   UNL     1      57.423  68.292  39.456  0.00  0.00    +0.000 C 
BRANCH  13  14
ATOM     14  C   UNL     1      57.321  69.500  38.554  0.00  0.00    +0.000 A 
ATOM     15  C   UNL     1      56.553  70.608  38.934  0.00  0.00    +0.000 A 
ATOM     16  C   UNL     1      57.937  69.499  37.295  0.00  0.00    +0.000 A 
ATOM     17  C   UNL     1      56.353  71.666  38.046  0.00  0.00    +0.000 A 
ATOM     18  C   UNL     1      57.741  70.561  36.412  0.00  0.00    +0.000 A 
ATOM     19  C   UNL     1      56.934  71.635  36.781  0.00  0.00    +0.000 A 
ENDBRANCH  13  14
ENDBRANCH   6  13
BRANCH  10  20
ATOM     20  C   UNL     1      59.505  65.199  42.518  0.00  0.00    +0.000 C 
BRANCH  20  21
ATOM     21  C   UNL     1      60.541  64.061  42.564  0.00  0.00    +0.000 C 
BRANCH  21  22
ATOM     22  N   UNL     1      61.918  64.572  42.469  0.00  0.00    +0.000 NA
ATOM     23  H   UNL     1      62.347  64.614  43.395  0.00  0.00    +0.000 HD
ATOM     24  H   UNL     1      62.497  63.917  41.939  0.00  0.00    +0.000 HD
ENDBRANCH  21  22
BRANCH  21  25
ATOM     25  C   UNL     1      60.345  62.947  41.510  0.00  0.00    +0.000 C 
BRANCH  25  28
ATOM     26  F   UNL     1      58.322  59.215  43.911  0.00  0.00    +0.000 F 
ATOM     27  F   UNL     1      60.430  57.582  43.283  0.00  0.00    +0.000 F 
ATOM     28  C   UNL     1      60.411  61.526  42.023  0.00  0.00    +0.000 A 
ATOM     29  C   UNL     1      59.346  61.016  42.784  0.00  0.00    +0.000 A 
ATOM     30  C   UNL     1      61.483  60.677  41.701  0.00  0.00    +0.000 A 
ATOM     31  C   UNL     1      59.358  59.691  43.206  0.00  0.00    +0.000 A 
ATOM     32  C   UNL     1      61.492  59.348  42.137  0.00  0.00    +0.000 A 
ATOM     33  C   UNL     1      60.425  58.864  42.885  0.00  0.00    +0.000 A 
ENDBRANCH  25  28
ENDBRANCH  21  25
ENDBRANCH  20  21
ENDBRANCH  10  20
TORSDOF 7
ENDMDL
MODEL 9
REMARK VINA RESULT:      -6.2      4.288      7.628
REMARK  Name = 10127139
REMARK  8 active torsions:
REMARK  status: ('A' for Active; 'I' for Inactive)
REMARK    1  A    between atoms: N_8  and  C_18
REMARK    2  A    between atoms: C_9  and  C_12
REMARK    3  A    between atoms: C_12  and  C_17
REMARK    4  A    between atoms: C_14  and  C_15
REMARK    5  A    between atoms: C_15  and  C_18
REMARK    6  A    between atoms: C_16  and  C_20
REMARK    7  A    between atoms: C_18  and  C_19
REMARK    8  A    between atoms: C_19  and  C_23
REMARK                            x       y       z     vdW  Elec       q    Type
REMARK                         _______ _______ _______ _____ _____    ______ ____
ROOT
ATOM      1  O   UNL     1      54.097  50.858  39.734  0.00  0.00    +0.000 OA
ATOM      2  N   UNL     1      52.642  51.331  41.433  0.00  0.00    +0.000 N 
ATOM      3  N   UNL     1      52.922  50.655  44.104  0.00  0.00    +0.000 N 
ATOM      4  N   UNL     1      50.845  50.062  44.409  0.00  0.00    +0.000 NA
ATOM      5  N   UNL     1      51.558  49.779  45.553  0.00  0.00    +0.000 NA
ATOM      6  C   UNL     1      53.700  52.028  42.212  0.00  0.00    +0.000 C 
ATOM      7  C   UNL     1      54.090  51.173  43.428  0.00  0.00    +0.000 C 
ATOM      8  C   UNL     1      51.392  51.035  42.147  0.00  0.00    +0.000 C 
ATOM      9  C   UNL     1      51.680  50.575  43.532  0.00  0.00    +0.000 A 
ATOM     10  C   UNL     1      52.941  50.845  40.165  0.00  0.00    +0.000 C 
ATOM     11  C   UNL     1      52.814  50.124  45.356  0.00  0.00    +0.000 A 
ATOM     12  C   UNL     1      53.928  49.966  46.317  0.00  0.00    +0.000 C 
ENDROOT
BRANCH   6  13
ATOM     13  C   UNL     1      53.297  53.466  42.647  0.00  0.00    +0.000 C 
BRANCH  13  14
ATOM     14  C   UNL     1      54.278  54.505  42.157  0.00  0.00    +0.000 A 
ATOM     15  C   UNL     1      55.056  54.268  41.016  0.00  0.00    +0.000 A 
ATOM     16  C   UNL     1      54.473  55.691  42.879  0.00  0.00    +0.000 A 
ATOM     17  C   UNL     1      56.053  55.170  40.642  0.00  0.00    +0.000 A 
ATOM     18  C   UNL     1      55.466  56.595  42.498  0.00  0.00    +0.000 A 
ATOM     19  C   UNL     1      56.268  56.324  41.390  0.00  0.00    +0.000 A 
ENDBRANCH  13  14
ENDBRANCH   6  13
BRANCH  10  20
ATOM     20  C   UNL     1      51.807  50.370  39.260  0.00  0.00    +0.000 C 
BRANCH  20  21
ATOM     21  C   UNL     1      51.641  48.848  39.095  0.00  0.00    +0.000 C 
BRANCH  21  22
ATOM     22  N   UNL     1      52.801  48.241  38.421  0.00  0.00    +0.000 NA
ATOM     23  H   UNL     1      52.634  47.249  38.251  0.00  0.00    +0.000 HD
ATOM     24  H   UNL     1      52.918  48.653  37.492  0.00  0.00    +0.000 HD
ENDBRANCH  21  22
BRANCH  21  25
ATOM     25  C   UNL     1      50.349  48.399  38.375  0.00  0.00    +0.000 C 
BRANCH  25  28
ATOM     26  F   UNL     1      50.698  49.548  33.648  0.00  0.00    +0.000 F 
ATOM     27  F   UNL     1      48.652  51.357  33.867  0.00  0.00    +0.000 F 
ATOM     28  C   UNL     1      49.919  49.239  37.193  0.00  0.00    +0.000 A 
ATOM     29  C   UNL     1      50.538  49.047  35.947  0.00  0.00    +0.000 A 
ATOM     30  C   UNL     1      48.866  50.165  37.292  0.00  0.00    +0.000 A 
ATOM     31  C   UNL     1      50.111  49.762  34.834  0.00  0.00    +0.000 A 
ATOM     32  C   UNL     1      48.447  50.885  36.169  0.00  0.00    +0.000 A 
ATOM     33  C   UNL     1      49.072  50.675  34.945  0.00  0.00    +0.000 A 
ENDBRANCH  25  28
ENDBRANCH  21  25
ENDBRANCH  20  21
ENDBRANCH  10  20
TORSDOF 7
ENDMDL
