MODEL 1
REMARK VINA RESULT:      -8.3      0.000      0.000
REMARK  Name = 20628251
REMARK  7 active torsions:
REMARK  status: ('A' for Active; 'I' for Inactive)
REMARK    1  A    between atoms: N_9  and  C_16
REMARK    2  A    between atoms: C_15  and  C_16
REMARK    3  A    between atoms: C_15  and  C_17
REMARK    4  A    between atoms: C_16  and  C_18
REMARK    5  A    between atoms: C_18  and  C_20
REMARK    6  A    between atoms: C_19  and  C_21
REMARK    7  A    between atoms: C_26  and  C_27
REMARK                            x       y       z     vdW  Elec       q    Type
REMARK                         _______ _______ _______ _____ _____    ______ ____
ROOT
ATOM      1  O   UNL     1      50.133  49.190  33.649  0.00  0.00    +0.000 OA
ATOM      2  N   UNL     1      51.227  49.327  35.650  0.00  0.00    +0.000 N 
ATOM      3  N   UNL     1      53.756  50.127  36.444  0.00  0.00    +0.000 N 
ATOM      4  N   UNL     1      54.842  48.765  35.130  0.00  0.00    +0.000 NA
ATOM      5  N   UNL     1      55.749  49.580  35.762  0.00  0.00    +0.000 NA
ATOM      6  C   UNL     1      51.392  49.835  37.015  0.00  0.00    +0.000 C 
ATOM      7  C   UNL     1      52.617  50.748  37.086  0.00  0.00    +0.000 C 
ATOM      8  C   UNL     1      52.334  48.509  35.138  0.00  0.00    +0.000 C 
ATOM      9  C   UNL     1      53.641  49.107  35.532  0.00  0.00    +0.000 A 
ATOM     10  C   UNL     1      50.146  49.571  34.818  0.00  0.00    +0.000 C 
ATOM     11  C   UNL     1      55.092  50.414  36.550  0.00  0.00    +0.000 A 
ENDROOT
BRANCH  11  15
ATOM     12  F   UNL     1      55.348  51.338  38.716  0.00  0.00    +0.000 F 
ATOM     13  F   UNL     1      55.256  52.719  37.045  0.00  0.00    +0.000 F 
ATOM     14  F   UNL     1      57.033  51.488  37.353  0.00  0.00    +0.000 F 
ATOM     15  C   UNL     1      55.677  51.479  37.403  0.00  0.00    +0.000 C 
ENDBRANCH  11  15
BRANCH  10  16
ATOM     16  C   UNL     1      48.984  50.351  35.410  0.00  0.00    +0.000 C 
BRANCH  16  17
ATOM     17  C   UNL     1      48.600  51.583  34.578  0.00  0.00    +0.000 C 
BRANCH  17  18
ATOM     18  N   UNL     1      49.846  52.276  34.192  0.00  0.00    +0.000 NA
ATOM     19  H   UNL     1      50.611  51.929  34.775  0.00  0.00    +0.000 HD
ATOM     20  H   UNL     1      49.770  53.271  34.406  0.00  0.00    +0.000 HD
ENDBRANCH  17  18
BRANCH  17  21
ATOM     21  C   UNL     1      47.663  52.537  35.369  0.00  0.00    +0.000 C 
BRANCH  21  23
ATOM     22  F   UNL     1      46.009  53.015  33.112  0.00  0.00    +0.000 F 
ATOM     23  C   UNL     1      46.206  52.144  35.310  0.00  0.00    +0.000 A 
ATOM     24  C   UNL     1      45.452  52.394  34.161  0.00  0.00    +0.000 A 
ATOM     25  C   UNL     1      45.579  51.523  36.399  0.00  0.00    +0.000 A 
ATOM     26  C   UNL     1      44.121  52.002  34.071  0.00  0.00    +0.000 A 
ATOM     27  C   UNL     1      44.244  51.120  36.312  0.00  0.00    +0.000 A 
ATOM     28  C   UNL     1      43.507  51.346  35.145  0.00  0.00    +0.000 A 
ATOM     29  C   UNL     1      42.083  50.893  35.028  0.00  0.00    +0.000 C 
ENDBRANCH  21  23
ENDBRANCH  17  21
ENDBRANCH  16  17
ENDBRANCH  10  16
TORSDOF 6
ENDMDL
MODEL 2
REMARK VINA RESULT:      -8.0     23.678     25.705
REMARK  Name = 20628251
REMARK  7 active torsions:
REMARK  status: ('A' for Active; 'I' for Inactive)
REMARK    1  A    between atoms: N_9  and  C_16
REMARK    2  A    between atoms: C_15  and  C_16
REMARK    3  A    between atoms: C_15  and  C_17
REMARK    4  A    between atoms: C_16  and  C_18
REMARK    5  A    between atoms: C_18  and  C_20
REMARK    6  A    between atoms: C_19  and  C_21
REMARK    7  A    between atoms: C_26  and  C_27
REMARK                            x       y       z     vdW  Elec       q    Type
REMARK                         _______ _______ _______ _____ _____    ______ ____
ROOT
ATOM      1  O   UNL     1      28.164  63.082  39.263  0.00  0.00    +0.000 OA
ATOM      2  N   UNL     1      29.612  64.476  40.349  0.00  0.00    +0.000 N 
ATOM      3  N   UNL     1      31.246  64.251  42.574  0.00  0.00    +0.000 N 
ATOM      4  N   UNL     1      29.662  63.654  43.952  0.00  0.00    +0.000 NA
ATOM      5  N   UNL     1      30.865  63.589  44.611  0.00  0.00    +0.000 NA
ATOM      6  C   UNL     1      30.807  65.322  40.415  0.00  0.00    +0.000 C 
ATOM      7  C   UNL     1      31.850  64.680  41.331  0.00  0.00    +0.000 C 
ATOM      8  C   UNL     1      28.912  64.264  41.623  0.00  0.00    +0.000 C 
ATOM      9  C   UNL     1      29.897  64.038  42.719  0.00  0.00    +0.000 A 
ATOM     10  C   UNL     1      29.117  63.859  39.212  0.00  0.00    +0.000 C 
ATOM     11  C   UNL     1      31.827  63.940  43.775  0.00  0.00    +0.000 A 
ENDROOT
BRANCH  11  15
ATOM     12  F   UNL     1      33.823  65.215  43.814  0.00  0.00    +0.000 F 
ATOM     13  F   UNL     1      33.991  63.110  43.312  0.00  0.00    +0.000 F 
ATOM     14  F   UNL     1      33.556  63.718  45.365  0.00  0.00    +0.000 F 
ATOM     15  C   UNL     1      33.282  63.991  44.064  0.00  0.00    +0.000 C 
ENDBRANCH  11  15
BRANCH  10  16
ATOM     16  C   UNL     1      29.818  64.168  37.900  0.00  0.00    +0.000 C 
BRANCH  16  17
ATOM     17  C   UNL     1      28.852  64.262  36.709  0.00  0.00    +0.000 C 
BRANCH  17  18
ATOM     18  N   UNL     1      28.801  62.935  36.063  0.00  0.00    +0.000 NA
ATOM     19  H   UNL     1      27.823  62.660  35.950  0.00  0.00    +0.000 HD
ATOM     20  H   UNL     1      29.212  62.233  36.678  0.00  0.00    +0.000 HD
ENDBRANCH  17  18
BRANCH  17  21
ATOM     21  C   UNL     1      29.301  65.350  35.696  0.00  0.00    +0.000 C 
BRANCH  21  23
ATOM     22  F   UNL     1      29.453  67.400  37.652  0.00  0.00    +0.000 F 
ATOM     23  C   UNL     1      28.415  66.574  35.687  0.00  0.00    +0.000 A 
ATOM     24  C   UNL     1      28.554  67.554  36.671  0.00  0.00    +0.000 A 
ATOM     25  C   UNL     1      27.440  66.753  34.696  0.00  0.00    +0.000 A 
ATOM     26  C   UNL     1      27.777  68.708  36.656  0.00  0.00    +0.000 A 
ATOM     27  C   UNL     1      26.662  67.914  34.670  0.00  0.00    +0.000 A 
ATOM     28  C   UNL     1      26.830  68.905  35.644  0.00  0.00    +0.000 A 
ATOM     29  C   UNL     1      26.023  70.167  35.612  0.00  0.00    +0.000 C 
ENDBRANCH  21  23
ENDBRANCH  17  21
ENDBRANCH  16  17
ENDBRANCH  10  16
TORSDOF 6
ENDMDL
MODEL 3
REMARK VINA RESULT:      -7.7     20.198     21.429
REMARK  Name = 20628251
REMARK  7 active torsions:
REMARK  status: ('A' for Active; 'I' for Inactive)
REMARK    1  A    between atoms: N_9  and  C_16
REMARK    2  A    between atoms: C_15  and  C_16
REMARK    3  A    between atoms: C_15  and  C_17
REMARK    4  A    between atoms: C_16  and  C_18
REMARK    5  A    between atoms: C_18  and  C_20
REMARK    6  A    between atoms: C_19  and  C_21
REMARK    7  A    between atoms: C_26  and  C_27
REMARK                            x       y       z     vdW  Elec       q    Type
REMARK                         _______ _______ _______ _____ _____    ______ ____
ROOT
ATOM      1  O   UNL     1      53.575  71.755  36.796  0.00  0.00    +0.000 OA
ATOM      2  N   UNL     1      54.380  70.656  38.631  0.00  0.00    +0.000 N 
ATOM      3  N   UNL     1      56.392  71.137  40.472  0.00  0.00    +0.000 N 
ATOM      4  N   UNL     1      57.993  71.338  39.003  0.00  0.00    +0.000 NA
ATOM      5  N   UNL     1      58.499  71.629  40.245  0.00  0.00    +0.000 NA
ATOM      6  C   UNL     1      54.241  70.077  39.970  0.00  0.00    +0.000 C 
ATOM      7  C   UNL     1      55.058  70.890  40.976  0.00  0.00    +0.000 C 
ATOM      8  C   UNL     1      55.742  70.670  38.082  0.00  0.00    +0.000 C 
ATOM      9  C   UNL     1      56.718  71.057  39.140  0.00  0.00    +0.000 A 
ATOM     10  C   UNL     1      53.356  71.197  37.871  0.00  0.00    +0.000 C 
ATOM     11  C   UNL     1      57.528  71.518  41.136  0.00  0.00    +0.000 A 
ENDROOT
BRANCH  11  15
ATOM     12  F   UNL     1      56.728  72.684  43.037  0.00  0.00    +0.000 F 
ATOM     13  F   UNL     1      58.849  72.231  42.961  0.00  0.00    +0.000 F 
ATOM     14  F   UNL     1      57.399  70.637  43.321  0.00  0.00    +0.000 F 
ATOM     15  C   UNL     1      57.628  71.762  42.597  0.00  0.00    +0.000 C 
ENDBRANCH  11  15
BRANCH  10  16
ATOM     16  C   UNL     1      51.949  71.090  38.435  0.00  0.00    +0.000 C 
BRANCH  16  17
ATOM     17  C   UNL     1      51.097  70.025  37.729  0.00  0.00    +0.000 C 
BRANCH  17  18
ATOM     18  N   UNL     1      51.086  70.338  36.286  0.00  0.00    +0.000 NA
ATOM     19  H   UNL     1      50.509  71.167  36.131  0.00  0.00    +0.000 HD
ATOM     20  H   UNL     1      50.626  69.586  35.771  0.00  0.00    +0.000 HD
ENDBRANCH  17  18
BRANCH  17  21
ATOM     21  C   UNL     1      49.650  69.985  38.294  0.00  0.00    +0.000 C 
BRANCH  21  23
ATOM     22  F   UNL     1      49.570  70.325  41.110  0.00  0.00    +0.000 F 
ATOM     23  C   UNL     1      49.223  71.270  38.962  0.00  0.00    +0.000 A 
ATOM     24  C   UNL     1      49.222  71.376  40.355  0.00  0.00    +0.000 A 
ATOM     25  C   UNL     1      48.821  72.380  38.207  0.00  0.00    +0.000 A 
ATOM     26  C   UNL     1      48.873  72.564  40.988  0.00  0.00    +0.000 A 
ATOM     27  C   UNL     1      48.476  73.579  38.837  0.00  0.00    +0.000 A 
ATOM     28  C   UNL     1      48.509  73.684  40.232  0.00  0.00    +0.000 A 
ATOM     29  C   UNL     1      48.171  74.972  40.920  0.00  0.00    +0.000 C 
ENDBRANCH  21  23
ENDBRANCH  17  21
ENDBRANCH  16  17
ENDBRANCH  10  16
TORSDOF 6
ENDMDL
MODEL 4
REMARK VINA RESULT:      -7.5      3.438      5.382
REMARK  Name = 20628251
REMARK  7 active torsions:
REMARK  status: ('A' for Active; 'I' for Inactive)
REMARK    1  A    between atoms: N_9  and  C_16
REMARK    2  A    between atoms: C_15  and  C_16
REMARK    3  A    between atoms: C_15  and  C_17
REMARK    4  A    between atoms: C_16  and  C_18
REMARK    5  A    between atoms: C_18  and  C_20
REMARK    6  A    between atoms: C_19  and  C_21
REMARK    7  A    between atoms: C_26  and  C_27
REMARK                            x       y       z     vdW  Elec       q    Type
REMARK                         _______ _______ _______ _____ _____    ______ ____
ROOT
ATOM      1  O   UNL     1      45.922  53.424  36.802  0.00  0.00    +0.000 OA
ATOM      2  N   UNL     1      47.254  52.857  35.034  0.00  0.00    +0.000 N 
ATOM      3  N   UNL     1      49.960  52.372  34.701  0.00  0.00    +0.000 N 
ATOM      4  N   UNL     1      50.630  54.284  35.513  0.00  0.00    +0.000 NA
ATOM      5  N   UNL     1      51.732  53.507  35.253  0.00  0.00    +0.000 NA
ATOM      6  C   UNL     1      47.666  51.970  33.942  0.00  0.00    +0.000 C 
ATOM      7  C   UNL     1      49.030  51.355  34.257  0.00  0.00    +0.000 C 
ATOM      8  C   UNL     1      48.134  54.006  35.286  0.00  0.00    +0.000 C 
ATOM      9  C   UNL     1      49.562  53.590  35.194  0.00  0.00    +0.000 A 
ATOM     10  C   UNL     1      46.141  52.688  35.841  0.00  0.00    +0.000 C 
ATOM     11  C   UNL     1      51.328  52.344  34.772  0.00  0.00    +0.000 A 
ENDROOT
BRANCH  11  15
ATOM     12  F   UNL     1      51.954  50.086  35.125  0.00  0.00    +0.000 F 
ATOM     13  F   UNL     1      53.509  51.471  34.511  0.00  0.00    +0.000 F 
ATOM     14  F   UNL     1      51.984  50.831  33.084  0.00  0.00    +0.000 F 
ATOM     15  C   UNL     1      52.186  51.199  34.375  0.00  0.00    +0.000 C 
ENDBRANCH  11  15
BRANCH  10  16
ATOM     16  C   UNL     1      45.211  51.536  35.498  0.00  0.00    +0.000 C 
BRANCH  16  17
ATOM     17  C   UNL     1      43.799  51.998  35.107  0.00  0.00    +0.000 C 
BRANCH  17  18
ATOM     18  N   UNL     1      43.928  53.271  34.370  0.00  0.00    +0.000 NA
ATOM     19  H   UNL     1      43.242  53.936  34.735  0.00  0.00    +0.000 HD
ATOM     20  H   UNL     1      43.678  53.132  33.390  0.00  0.00    +0.000 HD
ENDBRANCH  17  18
BRANCH  17  21
ATOM     21  C   UNL     1      42.890  52.174  36.354  0.00  0.00    +0.000 C 
BRANCH  21  23
ATOM     22  F   UNL     1      42.396  49.708  37.670  0.00  0.00    +0.000 F 
ATOM     23  C   UNL     1      41.578  51.431  36.260  0.00  0.00    +0.000 A 
ATOM     24  C   UNL     1      41.395  50.229  36.946  0.00  0.00    +0.000 A 
ATOM     25  C   UNL     1      40.520  51.928  35.486  0.00  0.00    +0.000 A 
ATOM     26  C   UNL     1      40.181  49.553  36.906  0.00  0.00    +0.000 A 
ATOM     27  C   UNL     1      39.295  51.257  35.447  0.00  0.00    +0.000 A 
ATOM     28  C   UNL     1      39.112  50.069  36.165  0.00  0.00    +0.000 A 
ATOM     29  C   UNL     1      37.795  49.354  36.156  0.00  0.00    +0.000 C 
ENDBRANCH  21  23
ENDBRANCH  17  21
ENDBRANCH  16  17
ENDBRANCH  10  16
TORSDOF 6
ENDMDL
MODEL 5
REMARK VINA RESULT:      -7.3      3.550      4.527
REMARK  Name = 20628251
REMARK  7 active torsions:
REMARK  status: ('A' for Active; 'I' for Inactive)
REMARK    1  A    between atoms: N_9  and  C_16
REMARK    2  A    between atoms: C_15  and  C_16
REMARK    3  A    between atoms: C_15  and  C_17
REMARK    4  A    between atoms: C_16  and  C_18
REMARK    5  A    between atoms: C_18  and  C_20
REMARK    6  A    between atoms: C_19  and  C_21
REMARK    7  A    between atoms: C_26  and  C_27
REMARK                            x       y       z     vdW  Elec       q    Type
REMARK                         _______ _______ _______ _____ _____    ______ ____
ROOT
ATOM      1  O   UNL     1      47.741  54.268  34.293  0.00  0.00    +0.000 OA
ATOM      2  N   UNL     1      49.011  52.378  34.485  0.00  0.00    +0.000 N 
ATOM      3  N   UNL     1      50.067  50.939  36.603  0.00  0.00    +0.000 N 
ATOM      4  N   UNL     1      51.144  52.615  37.494  0.00  0.00    +0.000 NA
ATOM      5  N   UNL     1      51.263  51.526  38.322  0.00  0.00    +0.000 NA
ATOM      6  C   UNL     1      49.258  50.947  34.290  0.00  0.00    +0.000 C 
ATOM      7  C   UNL     1      49.251  50.228  35.641  0.00  0.00    +0.000 C 
ATOM      8  C   UNL     1      50.008  53.091  35.293  0.00  0.00    +0.000 C 
ATOM      9  C   UNL     1      50.409  52.262  36.465  0.00  0.00    +0.000 A 
ATOM     10  C   UNL     1      47.925  53.088  33.998  0.00  0.00    +0.000 C 
ATOM     11  C   UNL     1      50.601  50.513  37.789  0.00  0.00    +0.000 A 
ENDROOT
BRANCH  11  15
ATOM     12  F   UNL     1      50.946  49.054  39.624  0.00  0.00    +0.000 F 
ATOM     13  F   UNL     1      51.102  48.209  37.631  0.00  0.00    +0.000 F 
ATOM     14  F   UNL     1      49.150  48.769  38.437  0.00  0.00    +0.000 F 
ATOM     15  C   UNL     1      50.450  49.151  38.360  0.00  0.00    +0.000 C 
ENDBRANCH  11  15
BRANCH  10  16
ATOM     16  C   UNL     1      46.958  52.337  33.099  0.00  0.00    +0.000 C 
BRANCH  16  17
ATOM     17  C   UNL     1      45.509  52.379  33.604  0.00  0.00    +0.000 C 
BRANCH  17  18
ATOM     18  N   UNL     1      44.989  53.741  33.375  0.00  0.00    +0.000 NA
ATOM     19  H   UNL     1      45.559  54.197  32.659  0.00  0.00    +0.000 HD
ATOM     20  H   UNL     1      45.108  54.305  34.218  0.00  0.00    +0.000 HD
ENDBRANCH  17  18
BRANCH  17  21
ATOM     21  C   UNL     1      45.418  52.001  35.109  0.00  0.00    +0.000 C 
BRANCH  21  23
ATOM     22  F   UNL     1      44.861  51.035  37.718  0.00  0.00    +0.000 F 
ATOM     23  C   UNL     1      44.086  51.412  35.508  0.00  0.00    +0.000 A 
ATOM     24  C   UNL     1      43.873  50.969  36.815  0.00  0.00    +0.000 A 
ATOM     25  C   UNL     1      43.040  51.295  34.583  0.00  0.00    +0.000 A 
ATOM     26  C   UNL     1      42.640  50.462  37.213  0.00  0.00    +0.000 A 
ATOM     27  C   UNL     1      41.797  50.794  34.979  0.00  0.00    +0.000 A 
ATOM     28  C   UNL     1      41.583  50.383  36.299  0.00  0.00    +0.000 A 
ATOM     29  C   UNL     1      40.247  49.871  36.745  0.00  0.00    +0.000 C 
ENDBRANCH  21  23
ENDBRANCH  17  21
ENDBRANCH  16  17
ENDBRANCH  10  16
TORSDOF 6
ENDMDL
MODEL 6
REMARK VINA RESULT:      -7.0      5.393      6.878
REMARK  Name = 20628251
REMARK  7 active torsions:
REMARK  status: ('A' for Active; 'I' for Inactive)
REMARK    1  A    between atoms: N_9  and  C_16
REMARK    2  A    between atoms: C_15  and  C_16
REMARK    3  A    between atoms: C_15  and  C_17
REMARK    4  A    between atoms: C_16  and  C_18
REMARK    5  A    between atoms: C_18  and  C_20
REMARK    6  A    between atoms: C_19  and  C_21
REMARK    7  A    between atoms: C_26  and  C_27
REMARK                            x       y       z     vdW  Elec       q    Type
REMARK                         _______ _______ _______ _____ _____    ______ ____
ROOT
ATOM      1  O   UNL     1      50.378  48.400  39.682  0.00  0.00    +0.000 OA
ATOM      2  N   UNL     1      50.921  50.008  41.213  0.00  0.00    +0.000 N 
ATOM      3  N   UNL     1      52.142  50.008  43.698  0.00  0.00    +0.000 N 
ATOM      4  N   UNL     1      50.771  48.582  44.619  0.00  0.00    +0.000 NA
ATOM      5  N   UNL     1      51.774  48.865  45.512  0.00  0.00    +0.000 NA
ATOM      6  C   UNL     1      51.622  51.224  41.636  0.00  0.00    +0.000 C 
ATOM      7  C   UNL     1      52.689  50.875  42.675  0.00  0.00    +0.000 C 
ATOM      8  C   UNL     1      50.194  49.293  42.269  0.00  0.00    +0.000 C 
ATOM      9  C   UNL     1      51.004  49.261  43.520  0.00  0.00    +0.000 A 
ATOM     10  C   UNL     1      50.910  49.482  39.931  0.00  0.00    +0.000 C 
ATOM     11  C   UNL     1      52.612  49.721  44.952  0.00  0.00    +0.000 A 
ENDROOT
BRANCH  11  15
ATOM     12  F   UNL     1      53.806  51.636  45.677  0.00  0.00    +0.000 F 
ATOM     13  F   UNL     1      54.954  50.007  44.817  0.00  0.00    +0.000 F 
ATOM     14  F   UNL     1      54.072  49.798  46.805  0.00  0.00    +0.000 F 
ATOM     15  C   UNL     1      53.848  50.280  45.555  0.00  0.00    +0.000 C 
ENDBRANCH  11  15
BRANCH  10  16
ATOM     16  C   UNL     1      51.603  50.292  38.848  0.00  0.00    +0.000 C 
BRANCH  16  17
ATOM     17  C   UNL     1      51.926  49.467  37.594  0.00  0.00    +0.000 C 
BRANCH  17  18
ATOM     18  N   UNL     1      53.036  48.552  37.927  0.00  0.00    +0.000 NA
ATOM     19  H   UNL     1      52.754  47.595  37.703  0.00  0.00    +0.000 HD
ATOM     20  H   UNL     1      53.201  48.559  38.935  0.00  0.00    +0.000 HD
ENDBRANCH  17  18
BRANCH  17  21
ATOM     21  C   UNL     1      52.307  50.378  36.394  0.00  0.00    +0.000 C 
BRANCH  21  23
ATOM     22  F   UNL     1      50.785  48.835  34.562  0.00  0.00    +0.000 F 
ATOM     23  C   UNL     1      51.115  50.921  35.642  0.00  0.00    +0.000 A 
ATOM     24  C   UNL     1      50.399  50.102  34.766  0.00  0.00    +0.000 A 
ATOM     25  C   UNL     1      50.702  52.250  35.804  0.00  0.00    +0.000 A 
ATOM     26  C   UNL     1      49.274  50.571  34.096  0.00  0.00    +0.000 A 
ATOM     27  C   UNL     1      49.568  52.725  35.139  0.00  0.00    +0.000 A 
ATOM     28  C   UNL     1      48.838  51.887  34.288  0.00  0.00    +0.000 A 
ATOM     29  C   UNL     1      47.604  52.374  33.592  0.00  0.00    +0.000 C 
ENDBRANCH  21  23
ENDBRANCH  17  21
ENDBRANCH  16  17
ENDBRANCH  10  16
TORSDOF 6
ENDMDL
MODEL 7
REMARK VINA RESULT:      -6.5      5.355      6.257
REMARK  Name = 20628251
REMARK  7 active torsions:
REMARK  status: ('A' for Active; 'I' for Inactive)
REMARK    1  A    between atoms: N_9  and  C_16
REMARK    2  A    between atoms: C_15  and  C_16
REMARK    3  A    between atoms: C_15  and  C_17
REMARK    4  A    between atoms: C_16  and  C_18
REMARK    5  A    between atoms: C_18  and  C_20
REMARK    6  A    between atoms: C_19  and  C_21
REMARK    7  A    between atoms: C_26  and  C_27
REMARK                            x       y       z     vdW  Elec       q    Type
REMARK                         _______ _______ _______ _____ _____    ______ ____
ROOT
ATOM      1  O   UNL     1      50.545  48.311  39.937  0.00  0.00    +0.000 OA
ATOM      2  N   UNL     1      50.651  50.026  41.444  0.00  0.00    +0.000 N 
ATOM      3  N   UNL     1      51.987  50.451  43.832  0.00  0.00    +0.000 N 
ATOM      4  N   UNL     1      51.223  48.670  44.833  0.00  0.00    +0.000 NA
ATOM      5  N   UNL     1      52.144  49.273  45.654  0.00  0.00    +0.000 NA
ATOM      6  C   UNL     1      50.951  51.408  41.829  0.00  0.00    +0.000 C 
ATOM      7  C   UNL     1      52.147  51.435  42.782  0.00  0.00    +0.000 C 
ATOM      8  C   UNL     1      50.274  49.128  42.543  0.00  0.00    +0.000 C 
ATOM      9  C   UNL     1      51.142  49.374  43.729  0.00  0.00    +0.000 A 
ATOM     10  C   UNL     1      50.715  49.509  40.160  0.00  0.00    +0.000 C 
ATOM     11  C   UNL     1      52.617  50.346  45.044  0.00  0.00    +0.000 A 
ENDROOT
BRANCH  11  15
ATOM     12  F   UNL     1      54.067  50.958  46.815  0.00  0.00    +0.000 F 
ATOM     13  F   UNL     1      53.195  52.560  45.638  0.00  0.00    +0.000 F 
ATOM     14  F   UNL     1      54.761  51.298  44.784  0.00  0.00    +0.000 F 
ATOM     15  C   UNL     1      53.647  51.282  45.561  0.00  0.00    +0.000 C 
ENDBRANCH  11  15
BRANCH  10  16
ATOM     16  C   UNL     1      51.028  50.486  39.039  0.00  0.00    +0.000 C 
BRANCH  16  17
ATOM     17  C   UNL     1      50.615  49.966  37.654  0.00  0.00    +0.000 C 
BRANCH  17  18
ATOM     18  N   UNL     1      51.742  49.180  37.113  0.00  0.00    +0.000 NA
ATOM     19  H   UNL     1      51.744  49.264  36.094  0.00  0.00    +0.000 HD
ATOM     20  H   UNL     1      51.596  48.187  37.304  0.00  0.00    +0.000 HD
ENDBRANCH  17  18
BRANCH  17  21
ATOM     21  C   UNL     1      50.245  51.130  36.694  0.00  0.00    +0.000 C 
BRANCH  21  23
ATOM     22  F   UNL     1      49.142  52.353  34.383  0.00  0.00    +0.000 F 
ATOM     23  C   UNL     1      48.760  51.277  36.462  0.00  0.00    +0.000 A 
ATOM     24  C   UNL     1      48.283  51.875  35.294  0.00  0.00    +0.000 A 
ATOM     25  C   UNL     1      47.832  50.820  37.408  0.00  0.00    +0.000 A 
ATOM     26  C   UNL     1      46.919  51.982  35.043  0.00  0.00    +0.000 A 
ATOM     27  C   UNL     1      46.460  50.918  37.158  0.00  0.00    +0.000 A 
ATOM     28  C   UNL     1      45.992  51.490  35.969  0.00  0.00    +0.000 A 
ATOM     29  C   UNL     1      44.525  51.575  35.675  0.00  0.00    +0.000 C 
ENDBRANCH  21  23
ENDBRANCH  17  21
ENDBRANCH  16  17
ENDBRANCH  10  16
TORSDOF 6
ENDMDL
MODEL 8
REMARK VINA RESULT:      -6.3     26.860     28.413
REMARK  Name = 20628251
REMARK  7 active torsions:
REMARK  status: ('A' for Active; 'I' for Inactive)
REMARK    1  A    between atoms: N_9  and  C_16
REMARK    2  A    between atoms: C_15  and  C_16
REMARK    3  A    between atoms: C_15  and  C_17
REMARK    4  A    between atoms: C_16  and  C_18
REMARK    5  A    between atoms: C_18  and  C_20
REMARK    6  A    between atoms: C_19  and  C_21
REMARK    7  A    between atoms: C_26  and  C_27
REMARK                            x       y       z     vdW  Elec       q    Type
REMARK                         _______ _______ _______ _____ _____    ______ ____
ROOT
ATOM      1  O   UNL     1      42.521  74.893  50.669  0.00  0.00    +0.000 OA
ATOM      2  N   UNL     1      43.986  73.213  51.175  0.00  0.00    +0.000 N 
ATOM      3  N   UNL     1      45.439  71.375  49.698  0.00  0.00    +0.000 N 
ATOM      4  N   UNL     1      43.724  70.532  48.645  0.00  0.00    +0.000 NA
ATOM      5  N   UNL     1      44.869  69.969  48.139  0.00  0.00    +0.000 NA
ATOM      6  C   UNL     1      45.231  72.697  51.751  0.00  0.00    +0.000 C 
ATOM      7  C   UNL     1      46.159  72.212  50.636  0.00  0.00    +0.000 C 
ATOM      8  C   UNL     1      43.185  72.243  50.417  0.00  0.00    +0.000 C 
ATOM      9  C   UNL     1      44.071  71.392  49.574  0.00  0.00    +0.000 A 
ATOM     10  C   UNL     1      43.528  74.518  51.268  0.00  0.00    +0.000 C 
ATOM     11  C   UNL     1      45.910  70.487  48.769  0.00  0.00    +0.000 A 
ENDROOT
BRANCH  11  15
ATOM     12  F   UNL     1      47.936  69.573  49.590  0.00  0.00    +0.000 F 
ATOM     13  F   UNL     1      48.077  71.290  48.270  0.00  0.00    +0.000 F 
ATOM     14  F   UNL     1      47.512  69.336  47.473  0.00  0.00    +0.000 F 
ATOM     15  C   UNL     1      47.342  70.177  48.525  0.00  0.00    +0.000 C 
ENDBRANCH  11  15
BRANCH  10  16
ATOM     16  C   UNL     1      44.340  75.472  52.128  0.00  0.00    +0.000 C 
BRANCH  16  17
ATOM     17  C   UNL     1      45.633  75.944  51.447  0.00  0.00    +0.000 C 
BRANCH  17  18
ATOM     18  N   UNL     1      46.686  76.022  52.479  0.00  0.00    +0.000 NA
ATOM     19  H   UNL     1      46.251  76.229  53.380  0.00  0.00    +0.000 HD
ATOM     20  H   UNL     1      47.304  76.811  52.286  0.00  0.00    +0.000 HD
ENDBRANCH  17  18
BRANCH  17  21
ATOM     21  C   UNL     1      45.443  77.320  50.752  0.00  0.00    +0.000 C 
BRANCH  21  23
ATOM     22  F   UNL     1      46.740  76.106  48.539  0.00  0.00    +0.000 F 
ATOM     23  C   UNL     1      46.705  77.866  50.128  0.00  0.00    +0.000 A 
ATOM     24  C   UNL     1      47.284  77.228  49.029  0.00  0.00    +0.000 A 
ATOM     25  C   UNL     1      47.322  79.019  50.634  0.00  0.00    +0.000 A 
ATOM     26  C   UNL     1      48.423  77.740  48.415  0.00  0.00    +0.000 A 
ATOM     27  C   UNL     1      48.461  79.542  50.017  0.00  0.00    +0.000 A 
ATOM     28  C   UNL     1      49.015  78.913  48.896  0.00  0.00    +0.000 A 
ATOM     29  C   UNL     1      50.219  79.478  48.206  0.00  0.00    +0.000 C 
ENDBRANCH  21  23
ENDBRANCH  17  21
ENDBRANCH  16  17
ENDBRANCH  10  16
TORSDOF 6
ENDMDL
MODEL 9
REMARK VINA RESULT:      -6.2     16.873     18.097
REMARK  Name = 20628251
REMARK  7 active torsions:
REMARK  status: ('A' for Active; 'I' for Inactive)
REMARK    1  A    between atoms: N_9  and  C_16
REMARK    2  A    between atoms: C_15  and  C_16
REMARK    3  A    between atoms: C_15  and  C_17
REMARK    4  A    between atoms: C_16  and  C_18
REMARK    5  A    between atoms: C_18  and  C_20
REMARK    6  A    between atoms: C_19  and  C_21
REMARK    7  A    between atoms: C_26  and  C_27
REMARK                            x       y       z     vdW  Elec       q    Type
REMARK                         _______ _______ _______ _____ _____    ______ ____
ROOT
ATOM      1  O   UNL     1      36.603  55.937  42.498  0.00  0.00    +0.000 OA
ATOM      2  N   UNL     1      35.237  54.699  43.849  0.00  0.00    +0.000 N 
ATOM      3  N   UNL     1      35.332  52.142  44.909  0.00  0.00    +0.000 N 
ATOM      4  N   UNL     1      35.559  51.118  42.996  0.00  0.00    +0.000 NA
ATOM      5  N   UNL     1      35.663  50.192  44.004  0.00  0.00    +0.000 NA
ATOM      6  C   UNL     1      34.524  54.447  45.105  0.00  0.00    +0.000 C 
ATOM      7  C   UNL     1      35.145  53.248  45.824  0.00  0.00    +0.000 C 
ATOM      8  C   UNL     1      35.197  53.610  42.865  0.00  0.00    +0.000 C 
ATOM      9  C   UNL     1      35.375  52.296  43.545  0.00  0.00    +0.000 A 
ATOM     10  C   UNL     1      35.947  55.847  43.535  0.00  0.00    +0.000 C 
ATOM     11  C   UNL     1      35.536  50.813  45.165  0.00  0.00    +0.000 A 
ENDROOT
BRANCH  11  15
ATOM     12  F   UNL     1      36.604  50.717  47.278  0.00  0.00    +0.000 F 
ATOM     13  F   UNL     1      35.829  48.860  46.464  0.00  0.00    +0.000 F 
ATOM     14  F   UNL     1      34.459  50.384  47.220  0.00  0.00    +0.000 F 
ATOM     15  C   UNL     1      35.604  50.197  46.515  0.00  0.00    +0.000 C 
ENDBRANCH  11  15
BRANCH  10  16
ATOM     16  C   UNL     1      35.898  56.984  44.542  0.00  0.00    +0.000 C 
BRANCH  16  17
ATOM     17  C   UNL     1      37.210  57.779  44.616  0.00  0.00    +0.000 C 
BRANCH  17  18
ATOM     18  N   UNL     1      37.735  57.659  45.991  0.00  0.00    +0.000 NA
ATOM     19  H   UNL     1      37.836  58.595  46.389  0.00  0.00    +0.000 HD
ATOM     20  H   UNL     1      38.678  57.269  45.970  0.00  0.00    +0.000 HD
ENDBRANCH  17  18
BRANCH  17  21
ATOM     21  C   UNL     1      36.994  59.270  44.238  0.00  0.00    +0.000 C 
BRANCH  21  23
ATOM     22  F   UNL     1      38.402  58.504  41.896  0.00  0.00    +0.000 F 
ATOM     23  C   UNL     1      36.454  59.471  42.842  0.00  0.00    +0.000 A 
ATOM     24  C   UNL     1      37.192  59.056  41.732  0.00  0.00    +0.000 A 
ATOM     25  C   UNL     1      35.207  60.076  42.629  0.00  0.00    +0.000 A 
ATOM     26  C   UNL     1      36.693  59.194  40.441  0.00  0.00    +0.000 A 
ATOM     27  C   UNL     1      34.697  60.210  41.335  0.00  0.00    +0.000 A 
ATOM     28  C   UNL     1      35.430  59.761  40.231  0.00  0.00    +0.000 A 
ATOM     29  C   UNL     1      34.883  59.872  38.841  0.00  0.00    +0.000 C 
ENDBRANCH  21  23
ENDBRANCH  17  21
ENDBRANCH  16  17
ENDBRANCH  10  16
TORSDOF 6
ENDMDL
