MODEL 1
REMARK VINA RESULT:      -8.4      0.000      0.000
REMARK  Name = 23647136
REMARK  6 active torsions:
REMARK  status: ('A' for Active; 'I' for Inactive)
REMARK    1  A    between atoms: N_10  and  C_17
REMARK    2  A    between atoms: C_16  and  C_17
REMARK    3  A    between atoms: C_16  and  C_18
REMARK    4  A    between atoms: C_17  and  C_19
REMARK    5  A    between atoms: C_19  and  C_21
REMARK    6  A    between atoms: C_20  and  C_22
REMARK                            x       y       z     vdW  Elec       q    Type
REMARK                         _______ _______ _______ _____ _____    ______ ____
ROOT
ATOM      1  O   UNL     1      45.545  72.272  50.811  0.00  0.00    +0.000 OA
ATOM      2  N   UNL     1      47.360  71.215  49.915  0.00  0.00    +0.000 N 
ATOM      3  N   UNL     1      49.563  69.932  50.990  0.00  0.00    +0.000 N 
ATOM      4  N   UNL     1      50.950  70.563  49.424  0.00  0.00    +0.000 NA
ATOM      5  N   UNL     1      51.668  69.963  50.429  0.00  0.00    +0.000 NA
ATOM      6  C   UNL     1      47.127  70.006  50.718  0.00  0.00    +0.000 C 
ATOM      7  C   UNL     1      48.297  69.750  51.671  0.00  0.00    +0.000 C 
ATOM      8  C   UNL     1      48.531  71.151  49.039  0.00  0.00    +0.000 C 
ATOM      9  C   UNL     1      49.685  70.565  49.778  0.00  0.00    +0.000 A 
ATOM     10  C   UNL     1      46.456  72.263  49.981  0.00  0.00    +0.000 C 
ATOM     11  C   UNL     1      50.833  69.606  51.393  0.00  0.00    +0.000 A 
ENDROOT
BRANCH  11  15
ATOM     12  F   UNL     1      50.586  69.598  53.749  0.00  0.00    +0.000 F 
ATOM     13  F   UNL     1      50.840  67.678  52.759  0.00  0.00    +0.000 F 
ATOM     14  F   UNL     1      52.528  69.055  52.940  0.00  0.00    +0.000 F 
ATOM     15  C   UNL     1      51.193  68.989  52.695  0.00  0.00    +0.000 C 
ENDBRANCH  11  15
BRANCH  10  16
ATOM     16  C   UNL     1      46.565  73.402  48.977  0.00  0.00    +0.000 C 
BRANCH  16  17
ATOM     17  C   UNL     1      47.186  74.699  49.531  0.00  0.00    +0.000 C 
BRANCH  17  18
ATOM     18  N   UNL     1      46.764  74.801  50.943  0.00  0.00    +0.000 NA
ATOM     19  H   UNL     1      46.065  74.085  51.144  0.00  0.00    +0.000 HD
ATOM     20  H   UNL     1      47.556  74.590  51.552  0.00  0.00    +0.000 HD
ENDBRANCH  17  18
BRANCH  17  21
ATOM     21  C   UNL     1      46.759  75.961  48.743  0.00  0.00    +0.000 C 
BRANCH  21  24
ATOM     22 CL   UNL     1      50.766  79.317  48.945  0.00  0.00    +0.000 Cl
ATOM     23  F   UNL     1      45.324  77.797  50.416  0.00  0.00    +0.000 F 
ATOM     24  C   UNL     1      47.315  77.283  49.239  0.00  0.00    +0.000 A 
ATOM     25  C   UNL     1      48.620  77.671  48.894  0.00  0.00    +0.000 A 
ATOM     26  C   UNL     1      46.572  78.132  50.065  0.00  0.00    +0.000 A 
ATOM     27  C   UNL     1      49.159  78.868  49.372  0.00  0.00    +0.000 A 
ATOM     28  C   UNL     1      47.106  79.329  50.544  0.00  0.00    +0.000 A 
ATOM     29  C   UNL     1      48.409  79.698  50.198  0.00  0.00    +0.000 A 
ENDBRANCH  21  24
ENDBRANCH  17  21
ENDBRANCH  16  17
ENDBRANCH  10  16
TORSDOF 6
ENDMDL
MODEL 2
REMARK VINA RESULT:      -8.2     26.128     28.510
REMARK  Name = 23647136
REMARK  6 active torsions:
REMARK  status: ('A' for Active; 'I' for Inactive)
REMARK    1  A    between atoms: N_10  and  C_17
REMARK    2  A    between atoms: C_16  and  C_17
REMARK    3  A    between atoms: C_16  and  C_18
REMARK    4  A    between atoms: C_17  and  C_19
REMARK    5  A    between atoms: C_19  and  C_21
REMARK    6  A    between atoms: C_20  and  C_22
REMARK                            x       y       z     vdW  Elec       q    Type
REMARK                         _______ _______ _______ _____ _____    ______ ____
ROOT
ATOM      1  O   UNL     1      41.539  50.056  35.285  0.00  0.00    +0.000 OA
ATOM      2  N   UNL     1      39.714  50.797  36.442  0.00  0.00    +0.000 N 
ATOM      3  N   UNL     1      37.055  50.040  36.531  0.00  0.00    +0.000 N 
ATOM      4  N   UNL     1      36.277  52.060  36.821  0.00  0.00    +0.000 NA
ATOM      5  N   UNL     1      35.221  51.213  36.595  0.00  0.00    +0.000 NA
ATOM      6  C   UNL     1      39.402  49.447  36.930  0.00  0.00    +0.000 C 
ATOM      7  C   UNL     1      38.039  48.982  36.411  0.00  0.00    +0.000 C 
ATOM      8  C   UNL     1      38.786  51.839  36.884  0.00  0.00    +0.000 C 
ATOM      9  C   UNL     1      37.383  51.354  36.756  0.00  0.00    +0.000 A 
ATOM     10  C   UNL     1      40.859  51.002  35.688  0.00  0.00    +0.000 C 
ATOM     11  C   UNL     1      35.692  49.992  36.389  0.00  0.00    +0.000 A 
ENDROOT
BRANCH  11  15
ATOM     12  F   UNL     1      35.451  48.079  35.012  0.00  0.00    +0.000 F 
ATOM     13  F   UNL     1      34.796  47.918  37.080  0.00  0.00    +0.000 F 
ATOM     14  F   UNL     1      33.638  49.096  35.648  0.00  0.00    +0.000 F 
ATOM     15  C   UNL     1      34.902  48.785  36.038  0.00  0.00    +0.000 C 
ENDBRANCH  11  15
BRANCH  10  16
ATOM     16  C   UNL     1      41.308  52.426  35.391  0.00  0.00    +0.000 C 
BRANCH  16  17
ATOM     17  C   UNL     1      42.735  52.769  35.860  0.00  0.00    +0.000 C 
BRANCH  17  18
ATOM     18  N   UNL     1      42.834  54.243  35.868  0.00  0.00    +0.000 NA
ATOM     19  H   UNL     1      42.275  54.628  35.106  0.00  0.00    +0.000 HD
ATOM     20  H   UNL     1      42.417  54.609  36.726  0.00  0.00    +0.000 HD
ENDBRANCH  17  18
BRANCH  17  21
ATOM     21  C   UNL     1      43.834  52.156  34.959  0.00  0.00    +0.000 C 
BRANCH  21  24
ATOM     22 CL   UNL     1      48.990  53.025  35.058  0.00  0.00    +0.000 Cl
ATOM     23  F   UNL     1      44.228  50.419  37.208  0.00  0.00    +0.000 F 
ATOM     24  C   UNL     1      45.176  51.898  35.618  0.00  0.00    +0.000 A 
ATOM     25  C   UNL     1      46.335  52.518  35.121  0.00  0.00    +0.000 A 
ATOM     26  C   UNL     1      45.309  51.029  36.706  0.00  0.00    +0.000 A 
ATOM     27  C   UNL     1      47.583  52.263  35.694  0.00  0.00    +0.000 A 
ATOM     28  C   UNL     1      46.555  50.772  37.282  0.00  0.00    +0.000 A 
ATOM     29  C   UNL     1      47.699  51.390  36.770  0.00  0.00    +0.000 A 
ENDBRANCH  21  24
ENDBRANCH  17  21
ENDBRANCH  16  17
ENDBRANCH  10  16
TORSDOF 6
ENDMDL
MODEL 3
REMARK VINA RESULT:      -8.0     11.658     13.818
REMARK  Name = 23647136
REMARK  6 active torsions:
REMARK  status: ('A' for Active; 'I' for Inactive)
REMARK    1  A    between atoms: N_10  and  C_17
REMARK    2  A    between atoms: C_16  and  C_17
REMARK    3  A    between atoms: C_16  and  C_18
REMARK    4  A    between atoms: C_17  and  C_19
REMARK    5  A    between atoms: C_19  and  C_21
REMARK    6  A    between atoms: C_20  and  C_22
REMARK                            x       y       z     vdW  Elec       q    Type
REMARK                         _______ _______ _______ _____ _____    ______ ____
ROOT
ATOM      1  O   UNL     1      54.247  71.833  36.690  0.00  0.00    +0.000 OA
ATOM      2  N   UNL     1      52.640  70.856  37.986  0.00  0.00    +0.000 N 
ATOM      3  N   UNL     1      50.337  71.775  39.212  0.00  0.00    +0.000 N 
ATOM      4  N   UNL     1      50.511  70.484  40.966  0.00  0.00    +0.000 NA
ATOM      5  N   UNL     1      49.495  71.381  41.182  0.00  0.00    +0.000 NA
ATOM      6  C   UNL     1      51.558  71.359  37.126  0.00  0.00    +0.000 C 
ATOM      7  C   UNL     1      50.645  72.311  37.901  0.00  0.00    +0.000 C 
ATOM      8  C   UNL     1      52.193  70.070  39.137  0.00  0.00    +0.000 C 
ATOM      9  C   UNL     1      51.033  70.741  39.788  0.00  0.00    +0.000 A 
ATOM     10  C   UNL     1      53.958  71.085  37.627  0.00  0.00    +0.000 C 
ATOM     11  C   UNL     1      49.406  72.184  40.133  0.00  0.00    +0.000 A 
ENDROOT
BRANCH  11  15
ATOM     12  F   UNL     1      47.708  73.247  38.867  0.00  0.00    +0.000 F 
ATOM     13  F   UNL     1      47.639  73.470  41.029  0.00  0.00    +0.000 F 
ATOM     14  F   UNL     1      49.163  74.517  39.864  0.00  0.00    +0.000 F 
ATOM     15  C   UNL     1      48.490  73.342  39.977  0.00  0.00    +0.000 C 
ENDBRANCH  11  15
BRANCH  10  16
ATOM     16  C   UNL     1      55.069  70.364  38.378  0.00  0.00    +0.000 C 
BRANCH  16  17
ATOM     17  C   UNL     1      56.225  71.265  38.851  0.00  0.00    +0.000 C 
BRANCH  17  18
ATOM     18  N   UNL     1      56.948  71.698  37.637  0.00  0.00    +0.000 NA
ATOM     19  H   UNL     1      57.954  71.664  37.807  0.00  0.00    +0.000 HD
ATOM     20  H   UNL     1      56.775  71.033  36.882  0.00  0.00    +0.000 HD
ENDBRANCH  17  18
BRANCH  17  21
ATOM     21  C   UNL     1      57.188  70.552  39.831  0.00  0.00    +0.000 C 
BRANCH  21  24
ATOM     22 CL   UNL     1      56.340  72.659  44.543  0.00  0.00    +0.000 Cl
ATOM     23  F   UNL     1      59.772  71.796  39.899  0.00  0.00    +0.000 F 
ATOM     24  C   UNL     1      57.708  71.386  40.988  0.00  0.00    +0.000 A 
ATOM     25  C   UNL     1      56.902  71.603  42.118  0.00  0.00    +0.000 A 
ATOM     26  C   UNL     1      58.974  71.979  40.958  0.00  0.00    +0.000 A 
ATOM     27  C   UNL     1      57.352  72.397  43.175  0.00  0.00    +0.000 A 
ATOM     28  C   UNL     1      59.428  72.774  42.013  0.00  0.00    +0.000 A 
ATOM     29  C   UNL     1      58.611  72.987  43.126  0.00  0.00    +0.000 A 
ENDBRANCH  21  24
ENDBRANCH  17  21
ENDBRANCH  16  17
ENDBRANCH  10  16
TORSDOF 6
ENDMDL
MODEL 4
REMARK VINA RESULT:      -7.8     26.024     27.755
REMARK  Name = 23647136
REMARK  6 active torsions:
REMARK  status: ('A' for Active; 'I' for Inactive)
REMARK    1  A    between atoms: N_10  and  C_17
REMARK    2  A    between atoms: C_16  and  C_17
REMARK    3  A    between atoms: C_16  and  C_18
REMARK    4  A    between atoms: C_17  and  C_19
REMARK    5  A    between atoms: C_19  and  C_21
REMARK    6  A    between atoms: C_20  and  C_22
REMARK                            x       y       z     vdW  Elec       q    Type
REMARK                         _______ _______ _______ _____ _____    ______ ____
ROOT
ATOM      1  O   UNL     1      50.288  53.411  36.245  0.00  0.00    +0.000 OA
ATOM      2  N   UNL     1      50.354  51.188  35.726  0.00  0.00    +0.000 N 
ATOM      3  N   UNL     1      52.398  49.369  35.318  0.00  0.00    +0.000 N 
ATOM      4  N   UNL     1      51.356  48.236  33.767  0.00  0.00    +0.000 NA
ATOM      5  N   UNL     1      52.653  47.792  33.836  0.00  0.00    +0.000 NA
ATOM      6  C   UNL     1      51.244  50.890  36.857  0.00  0.00    +0.000 C 
ATOM      7  C   UNL     1      52.590  50.352  36.365  0.00  0.00    +0.000 C 
ATOM      8  C   UNL     1      50.001  50.030  34.903  0.00  0.00    +0.000 C 
ATOM      9  C   UNL     1      51.213  49.204  34.644  0.00  0.00    +0.000 A 
ATOM     10  C   UNL     1      49.869  52.475  35.560  0.00  0.00    +0.000 C 
ATOM     11  C   UNL     1      53.295  48.498  34.755  0.00  0.00    +0.000 A 
ENDROOT
BRANCH  11  15
ATOM     12  F   UNL     1      55.439  49.508  34.756  0.00  0.00    +0.000 F 
ATOM     13  F   UNL     1      54.931  48.226  36.438  0.00  0.00    +0.000 F 
ATOM     14  F   UNL     1      55.342  47.355  34.477  0.00  0.00    +0.000 F 
ATOM     15  C   UNL     1      54.735  48.396  35.104  0.00  0.00    +0.000 C 
ENDBRANCH  11  15
BRANCH  10  16
ATOM     16  C   UNL     1      48.766  52.728  34.542  0.00  0.00    +0.000 C 
BRANCH  16  17
ATOM     17  C   UNL     1      47.372  52.987  35.145  0.00  0.00    +0.000 C 
BRANCH  17  18
ATOM     18  N   UNL     1      47.549  54.012  36.194  0.00  0.00    +0.000 NA
ATOM     19  H   UNL     1      47.504  53.572  37.114  0.00  0.00    +0.000 HD
ATOM     20  H   UNL     1      48.486  54.412  36.127  0.00  0.00    +0.000 HD
ENDBRANCH  17  18
BRANCH  17  21
ATOM     21  C   UNL     1      46.719  51.713  35.734  0.00  0.00    +0.000 C 
BRANCH  21  24
ATOM     22 CL   UNL     1      42.006  50.528  37.667  0.00  0.00    +0.000 Cl
ATOM     23  F   UNL     1      45.427  52.090  33.200  0.00  0.00    +0.000 F 
ATOM     24  C   UNL     1      45.229  51.552  35.500  0.00  0.00    +0.000 A 
ATOM     25  C   UNL     1      44.386  51.181  36.561  0.00  0.00    +0.000 A 
ATOM     26  C   UNL     1      44.657  51.736  34.237  0.00  0.00    +0.000 A 
ATOM     27  C   UNL     1      43.017  50.994  36.353  0.00  0.00    +0.000 A 
ATOM     28  C   UNL     1      43.289  51.551  34.025  0.00  0.00    +0.000 A 
ATOM     29  C   UNL     1      42.465  51.174  35.089  0.00  0.00    +0.000 A 
ENDBRANCH  21  24
ENDBRANCH  17  21
ENDBRANCH  16  17
ENDBRANCH  10  16
TORSDOF 6
ENDMDL
MODEL 5
REMARK VINA RESULT:      -7.2     12.071     14.334
REMARK  Name = 23647136
REMARK  6 active torsions:
REMARK  status: ('A' for Active; 'I' for Inactive)
REMARK    1  A    between atoms: N_10  and  C_17
REMARK    2  A    between atoms: C_16  and  C_17
REMARK    3  A    between atoms: C_16  and  C_18
REMARK    4  A    between atoms: C_17  and  C_19
REMARK    5  A    between atoms: C_19  and  C_21
REMARK    6  A    between atoms: C_20  and  C_22
REMARK                            x       y       z     vdW  Elec       q    Type
REMARK                         _______ _______ _______ _____ _____    ______ ____
ROOT
ATOM      1  O   UNL     1      54.450  71.843  36.593  0.00  0.00    +0.000 OA
ATOM      2  N   UNL     1      53.124  70.843  38.160  0.00  0.00    +0.000 N 
ATOM      3  N   UNL     1      50.666  71.455  39.273  0.00  0.00    +0.000 N 
ATOM      4  N   UNL     1      51.144  70.682  41.259  0.00  0.00    +0.000 NA
ATOM      5  N   UNL     1      49.941  71.340  41.324  0.00  0.00    +0.000 NA
ATOM      6  C   UNL     1      51.954  70.866  37.270  0.00  0.00    +0.000 C 
ATOM      7  C   UNL     1      50.838  71.730  37.860  0.00  0.00    +0.000 C 
ATOM      8  C   UNL     1      52.878  70.262  39.481  0.00  0.00    +0.000 C 
ATOM      9  C   UNL     1      51.590  70.775  40.028  0.00  0.00    +0.000 A 
ATOM     10  C   UNL     1      54.349  71.286  37.688  0.00  0.00    +0.000 C 
ATOM     11  C   UNL     1      49.663  71.836  40.127  0.00  0.00    +0.000 A 
ENDROOT
BRANCH  11  15
ATOM     12  F   UNL     1      47.671  72.075  38.867  0.00  0.00    +0.000 F 
ATOM     13  F   UNL     1      47.725  72.980  40.843  0.00  0.00    +0.000 F 
ATOM     14  F   UNL     1      48.869  73.857  39.201  0.00  0.00    +0.000 F 
ATOM     15  C   UNL     1      48.495  72.679  39.766  0.00  0.00    +0.000 C 
ENDBRANCH  11  15
BRANCH  10  16
ATOM     16  C   UNL     1      55.600  71.038  38.520  0.00  0.00    +0.000 C 
BRANCH  16  17
ATOM     17  C   UNL     1      56.785  71.971  38.206  0.00  0.00    +0.000 C 
BRANCH  17  18
ATOM     18  N   UNL     1      57.434  71.436  36.991  0.00  0.00    +0.000 NA
ATOM     19  H   UNL     1      58.448  71.484  37.096  0.00  0.00    +0.000 HD
ATOM     20  H   UNL     1      57.214  70.444  36.896  0.00  0.00    +0.000 HD
ENDBRANCH  17  18
BRANCH  17  21
ATOM     21  C   UNL     1      57.803  72.071  39.367  0.00  0.00    +0.000 C 
BRANCH  21  24
ATOM     22 CL   UNL     1      59.505  67.238  40.419  0.00  0.00    +0.000 Cl
ATOM     23  F   UNL     1      56.431  71.981  41.885  0.00  0.00    +0.000 F 
ATOM     24  C   UNL     1      57.847  70.895  40.325  0.00  0.00    +0.000 A 
ATOM     25  C   UNL     1      58.584  69.745  39.996  0.00  0.00    +0.000 A 
ATOM     26  C   UNL     1      57.145  70.904  41.535  0.00  0.00    +0.000 A 
ATOM     27  C   UNL     1      58.604  68.641  40.851  0.00  0.00    +0.000 A 
ATOM     28  C   UNL     1      57.164  69.802  42.393  0.00  0.00    +0.000 A 
ATOM     29  C   UNL     1      57.895  68.663  42.047  0.00  0.00    +0.000 A 
ENDBRANCH  21  24
ENDBRANCH  17  21
ENDBRANCH  16  17
ENDBRANCH  10  16
TORSDOF 6
ENDMDL
MODEL 6
REMARK VINA RESULT:      -7.2     24.825     26.796
REMARK  Name = 23647136
REMARK  6 active torsions:
REMARK  status: ('A' for Active; 'I' for Inactive)
REMARK    1  A    between atoms: N_10  and  C_17
REMARK    2  A    between atoms: C_16  and  C_17
REMARK    3  A    between atoms: C_16  and  C_18
REMARK    4  A    between atoms: C_17  and  C_19
REMARK    5  A    between atoms: C_19  and  C_21
REMARK    6  A    between atoms: C_20  and  C_22
REMARK                            x       y       z     vdW  Elec       q    Type
REMARK                         _______ _______ _______ _____ _____    ______ ____
ROOT
ATOM      1  O   UNL     1      39.098  53.407  41.963  0.00  0.00    +0.000 OA
ATOM      2  N   UNL     1      37.967  51.921  40.650  0.00  0.00    +0.000 N 
ATOM      3  N   UNL     1      38.206  51.110  38.016  0.00  0.00    +0.000 N 
ATOM      4  N   UNL     1      36.063  50.842  37.690  0.00  0.00    +0.000 NA
ATOM      5  N   UNL     1      36.708  50.717  36.485  0.00  0.00    +0.000 NA
ATOM      6  C   UNL     1      39.206  51.238  40.253  0.00  0.00    +0.000 C 
ATOM      7  C   UNL     1      39.435  51.360  38.744  0.00  0.00    +0.000 C 
ATOM      8  C   UNL     1      36.747  51.372  40.056  0.00  0.00    +0.000 C 
ATOM      9  C   UNL     1      36.966  51.104  38.607  0.00  0.00    +0.000 A 
ATOM     10  C   UNL     1      38.021  52.947  41.579  0.00  0.00    +0.000 C 
ATOM     11  C   UNL     1      38.005  50.909  36.675  0.00  0.00    +0.000 A 
ENDROOT
BRANCH  11  15
ATOM     12  F   UNL     1      40.001  49.967  35.812  0.00  0.00    +0.000 F 
ATOM     13  F   UNL     1      38.555  50.741  34.384  0.00  0.00    +0.000 F 
ATOM     14  F   UNL     1      39.733  52.114  35.610  0.00  0.00    +0.000 F 
ATOM     15  C   UNL     1      39.060  50.934  35.630  0.00  0.00    +0.000 C 
ENDBRANCH  11  15
BRANCH  10  16
ATOM     16  C   UNL     1      36.725  53.486  42.169  0.00  0.00    +0.000 C 
BRANCH  16  17
ATOM     17  C   UNL     1      36.578  53.305  43.691  0.00  0.00    +0.000 C 
BRANCH  17  18
ATOM     18  N   UNL     1      37.578  52.295  44.096  0.00  0.00    +0.000 NA
ATOM     19  H   UNL     1      37.849  52.451  45.067  0.00  0.00    +0.000 HD
ATOM     20  H   UNL     1      37.153  51.367  44.075  0.00  0.00    +0.000 HD
ENDBRANCH  17  18
BRANCH  17  21
ATOM     21  C   UNL     1      35.157  52.863  44.116  0.00  0.00    +0.000 C 
BRANCH  21  24
ATOM     22 CL   UNL     1      35.113  49.624  48.222  0.00  0.00    +0.000 Cl
ATOM     23  F   UNL     1      34.314  54.929  45.919  0.00  0.00    +0.000 F 
ATOM     24  C   UNL     1      34.932  52.663  45.603  0.00  0.00    +0.000 A 
ATOM     25  C   UNL     1      35.122  51.397  46.180  0.00  0.00    +0.000 A 
ATOM     26  C   UNL     1      34.507  53.707  46.431  0.00  0.00    +0.000 A 
ATOM     27  C   UNL     1      34.884  51.189  47.541  0.00  0.00    +0.000 A 
ATOM     28  C   UNL     1      34.268  53.504  47.792  0.00  0.00    +0.000 A 
ATOM     29  C   UNL     1      34.455  52.236  48.349  0.00  0.00    +0.000 A 
ENDBRANCH  21  24
ENDBRANCH  17  21
ENDBRANCH  16  17
ENDBRANCH  10  16
TORSDOF 6
ENDMDL
MODEL 7
REMARK VINA RESULT:      -6.8     23.354     26.474
REMARK  Name = 23647136
REMARK  6 active torsions:
REMARK  status: ('A' for Active; 'I' for Inactive)
REMARK    1  A    between atoms: N_10  and  C_17
REMARK    2  A    between atoms: C_16  and  C_17
REMARK    3  A    between atoms: C_16  and  C_18
REMARK    4  A    between atoms: C_17  and  C_19
REMARK    5  A    between atoms: C_19  and  C_21
REMARK    6  A    between atoms: C_20  and  C_22
REMARK                            x       y       z     vdW  Elec       q    Type
REMARK                         _______ _______ _______ _____ _____    ______ ____
ROOT
ATOM      1  O   UNL     1      38.125  48.866  45.729  0.00  0.00    +0.000 OA
ATOM      2  N   UNL     1      36.960  50.101  44.201  0.00  0.00    +0.000 N 
ATOM      3  N   UNL     1      36.744  52.809  43.681  0.00  0.00    +0.000 N 
ATOM      4  N   UNL     1      34.640  52.737  43.096  0.00  0.00    +0.000 NA
ATOM      5  N   UNL     1      35.024  54.051  43.187  0.00  0.00    +0.000 NA
ATOM      6  C   UNL     1      38.170  50.816  43.769  0.00  0.00    +0.000 C 
ATOM      7  C   UNL     1      38.051  52.313  44.061  0.00  0.00    +0.000 C 
ATOM      8  C   UNL     1      35.732  50.506  43.516  0.00  0.00    +0.000 C 
ATOM      9  C   UNL     1      35.672  51.991  43.419  0.00  0.00    +0.000 A 
ATOM     10  C   UNL     1      37.066  49.083  45.136  0.00  0.00    +0.000 C 
ATOM     11  C   UNL     1      36.291  54.099  43.571  0.00  0.00    +0.000 A 
ENDROOT
BRANCH  11  15
ATOM     12  F   UNL     1      37.481  55.390  45.161  0.00  0.00    +0.000 F 
ATOM     13  F   UNL     1      38.217  55.388  43.115  0.00  0.00    +0.000 F 
ATOM     14  F   UNL     1      36.380  56.457  43.621  0.00  0.00    +0.000 F 
ATOM     15  C   UNL     1      37.084  55.320  43.861  0.00  0.00    +0.000 C 
ENDBRANCH  11  15
BRANCH  10  16
ATOM     16  C   UNL     1      35.863  48.189  45.400  0.00  0.00    +0.000 C 
BRANCH  16  17
ATOM     17  C   UNL     1      35.664  47.786  46.874  0.00  0.00    +0.000 C 
BRANCH  17  18
ATOM     18  N   UNL     1      35.369  46.338  46.880  0.00  0.00    +0.000 NA
ATOM     19  H   UNL     1      36.205  45.820  47.152  0.00  0.00    +0.000 HD
ATOM     20  H   UNL     1      34.674  46.134  47.599  0.00  0.00    +0.000 HD
ENDBRANCH  17  18
BRANCH  17  21
ATOM     21  C   UNL     1      34.529  48.574  47.570  0.00  0.00    +0.000 C 
BRANCH  21  24
ATOM     22 CL   UNL     1      34.644  53.791  47.926  0.00  0.00    +0.000 Cl
ATOM     23  F   UNL     1      35.998  48.517  50.033  0.00  0.00    +0.000 F 
ATOM     24  C   UNL     1      34.946  49.808  48.348  0.00  0.00    +0.000 A 
ATOM     25  C   UNL     1      34.627  51.088  47.862  0.00  0.00    +0.000 A 
ATOM     26  C   UNL     1      35.675  49.718  49.538  0.00  0.00    +0.000 A 
ATOM     27  C   UNL     1      35.036  52.234  48.548  0.00  0.00    +0.000 A 
ATOM     28  C   UNL     1      36.085  50.862  50.227  0.00  0.00    +0.000 A 
ATOM     29  C   UNL     1      35.767  52.127  49.727  0.00  0.00    +0.000 A 
ENDBRANCH  21  24
ENDBRANCH  17  21
ENDBRANCH  16  17
ENDBRANCH  10  16
TORSDOF 6
ENDMDL
MODEL 8
REMARK VINA RESULT:      -6.8     22.766     26.048
REMARK  Name = 23647136
REMARK  6 active torsions:
REMARK  status: ('A' for Active; 'I' for Inactive)
REMARK    1  A    between atoms: N_10  and  C_17
REMARK    2  A    between atoms: C_16  and  C_17
REMARK    3  A    between atoms: C_16  and  C_18
REMARK    4  A    between atoms: C_17  and  C_19
REMARK    5  A    between atoms: C_19  and  C_21
REMARK    6  A    between atoms: C_20  and  C_22
REMARK                            x       y       z     vdW  Elec       q    Type
REMARK                         _______ _______ _______ _____ _____    ______ ____
ROOT
ATOM      1  O   UNL     1      52.806  52.117  40.501  0.00  0.00    +0.000 OA
ATOM      2  N   UNL     1      54.148  51.920  38.663  0.00  0.00    +0.000 N 
ATOM      3  N   UNL     1      53.968  50.504  36.294  0.00  0.00    +0.000 N 
ATOM      4  N   UNL     1      56.111  50.108  36.130  0.00  0.00    +0.000 NA
ATOM      5  N   UNL     1      55.457  49.382  35.166  0.00  0.00    +0.000 NA
ATOM      6  C   UNL     1      53.044  52.248  37.749  0.00  0.00    +0.000 C 
ATOM      7  C   UNL     1      52.742  51.074  36.816  0.00  0.00    +0.000 C 
ATOM      8  C   UNL     1      55.426  51.644  38.006  0.00  0.00    +0.000 C 
ATOM      9  C   UNL     1      55.208  50.763  36.824  0.00  0.00    +0.000 A 
ATOM     10  C   UNL     1      53.936  51.963  40.032  0.00  0.00    +0.000 C 
ATOM     11  C   UNL     1      54.155  49.597  35.282  0.00  0.00    +0.000 A 
ENDROOT
BRANCH  11  15
ATOM     12  F   UNL     1      53.552  48.033  33.607  0.00  0.00    +0.000 F 
ATOM     13  F   UNL     1      52.176  48.306  35.269  0.00  0.00    +0.000 F 
ATOM     14  F   UNL     1      52.383  49.859  33.746  0.00  0.00    +0.000 F 
ATOM     15  C   UNL     1      53.077  48.957  34.487  0.00  0.00    +0.000 C 
ENDBRANCH  11  15
BRANCH  10  16
ATOM     16  C   UNL     1      55.128  51.863  40.972  0.00  0.00    +0.000 C 
BRANCH  16  17
ATOM     17  C   UNL     1      54.912  52.482  42.366  0.00  0.00    +0.000 C 
BRANCH  17  18
ATOM     18  N   UNL     1      55.728  53.713  42.413  0.00  0.00    +0.000 NA
ATOM     19  H   UNL     1      56.621  53.515  42.864  0.00  0.00    +0.000 HD
ATOM     20  H   UNL     1      55.960  54.005  41.463  0.00  0.00    +0.000 HD
ENDBRANCH  17  18
BRANCH  17  21
ATOM     21  C   UNL     1      55.300  51.528  43.521  0.00  0.00    +0.000 C 
BRANCH  21  24
ATOM     22 CL   UNL     1      51.807  53.977  46.547  0.00  0.00    +0.000 Cl
ATOM     23  F   UNL     1      54.917  49.226  45.189  0.00  0.00    +0.000 F 
ATOM     24  C   UNL     1      54.342  51.471  44.697  0.00  0.00    +0.000 A 
ATOM     25  C   UNL     1      53.580  52.601  45.039  0.00  0.00    +0.000 A 
ATOM     26  C   UNL     1      54.208  50.323  45.483  0.00  0.00    +0.000 A 
ATOM     27  C   UNL     1      52.721  52.576  46.140  0.00  0.00    +0.000 A 
ATOM     28  C   UNL     1      53.350  50.293  46.584  0.00  0.00    +0.000 A 
ATOM     29  C   UNL     1      52.605  51.427  46.916  0.00  0.00    +0.000 A 
ENDBRANCH  21  24
ENDBRANCH  17  21
ENDBRANCH  16  17
ENDBRANCH  10  16
TORSDOF 6
ENDMDL
MODEL 9
REMARK VINA RESULT:      -6.4     23.662     26.299
REMARK  Name = 23647136
REMARK  6 active torsions:
REMARK  status: ('A' for Active; 'I' for Inactive)
REMARK    1  A    between atoms: N_10  and  C_17
REMARK    2  A    between atoms: C_16  and  C_17
REMARK    3  A    between atoms: C_16  and  C_18
REMARK    4  A    between atoms: C_17  and  C_19
REMARK    5  A    between atoms: C_19  and  C_21
REMARK    6  A    between atoms: C_20  and  C_22
REMARK                            x       y       z     vdW  Elec       q    Type
REMARK                         _______ _______ _______ _____ _____    ______ ____
ROOT
ATOM      1  O   UNL     1      55.926  53.255  37.869  0.00  0.00    +0.000 OA
ATOM      2  N   UNL     1      54.092  52.806  39.154  0.00  0.00    +0.000 N 
ATOM      3  N   UNL     1      53.732  51.971  41.767  0.00  0.00    +0.000 N 
ATOM      4  N   UNL     1      51.963  50.758  41.351  0.00  0.00    +0.000 NA
ATOM      5  N   UNL     1      52.360  50.523  42.643  0.00  0.00    +0.000 NA
ATOM      6  C   UNL     1      54.555  53.696  40.229  0.00  0.00    +0.000 C 
ATOM      7  C   UNL     1      54.809  52.908  41.517  0.00  0.00    +0.000 C 
ATOM      8  C   UNL     1      52.821  52.132  39.422  0.00  0.00    +0.000 C 
ATOM      9  C   UNL     1      52.807  51.612  40.818  0.00  0.00    +0.000 A 
ATOM     10  C   UNL     1      54.819  52.723  37.978  0.00  0.00    +0.000 C 
ATOM     11  C   UNL     1      53.450  51.235  42.889  0.00  0.00    +0.000 A 
ENDROOT
BRANCH  11  15
ATOM     12  F   UNL     1      55.532  50.810  43.938  0.00  0.00    +0.000 F 
ATOM     13  F   UNL     1      54.338  52.459  44.704  0.00  0.00    +0.000 F 
ATOM     14  F   UNL     1      53.729  50.394  45.077  0.00  0.00    +0.000 F 
ATOM     15  C   UNL     1      54.252  51.226  44.139  0.00  0.00    +0.000 C 
ENDBRANCH  11  15
BRANCH  10  16
ATOM     16  C   UNL     1      54.218  51.997  36.783  0.00  0.00    +0.000 C 
BRANCH  16  17
ATOM     17  C   UNL     1      54.807  50.600  36.506  0.00  0.00    +0.000 C 
BRANCH  17  18
ATOM     18  N   UNL     1      56.267  50.777  36.369  0.00  0.00    +0.000 NA
ATOM     19  H   UNL     1      56.620  51.331  37.150  0.00  0.00    +0.000 HD
ATOM     20  H   UNL     1      56.729  49.870  36.445  0.00  0.00    +0.000 HD
ENDBRANCH  17  18
BRANCH  17  21
ATOM     21  C   UNL     1      54.218  49.933  35.240  0.00  0.00    +0.000 C 
BRANCH  21  24
ATOM     22 CL   UNL     1      49.823  48.369  37.604  0.00  0.00    +0.000 Cl
ATOM     23  F   UNL     1      52.580  50.693  33.011  0.00  0.00    +0.000 F 
ATOM     24  C   UNL     1      52.709  49.787  35.197  0.00  0.00    +0.000 A 
ATOM     25  C   UNL     1      52.024  49.234  36.292  0.00  0.00    +0.000 A 
ATOM     26  C   UNL     1      51.963  50.163  34.075  0.00  0.00    +0.000 A 
ATOM     27  C   UNL     1      50.638  49.060  36.254  0.00  0.00    +0.000 A 
ATOM     28  C   UNL     1      50.578  49.990  34.033  0.00  0.00    +0.000 A 
ATOM     29  C   UNL     1      49.913  49.432  35.127  0.00  0.00    +0.000 A 
ENDBRANCH  21  24
ENDBRANCH  17  21
ENDBRANCH  16  17
ENDBRANCH  10  16
TORSDOF 6
ENDMDL
