MODEL 1
REMARK VINA RESULT:      -8.8      0.000      0.000
REMARK  Name = 24776690
REMARK  13 active torsions:
REMARK  status: ('A' for Active; 'I' for Inactive)
REMARK    1  A    between atoms: O_11  and  C_31
REMARK    2  A    between atoms: O_11  and  C_32
REMARK    3  A    between atoms: N_17  and  C_25
REMARK    4  A    between atoms: C_18  and  C_22
REMARK    5  A    between atoms: C_22  and  C_27
REMARK    6  A    between atoms: C_23  and  C_24
REMARK    7  A    between atoms: C_24  and  C_25
REMARK    8  A    between atoms: C_25  and  C_28
REMARK    9  A    between atoms: C_26  and  C_29
REMARK   10  A    between atoms: C_28  and  C_30
REMARK   11  A    between atoms: C_32  and  C_35
REMARK   12  A    between atoms: C_32  and  C_36
REMARK   13  A    between atoms: C_32  and  C_37
REMARK                            x       y       z     vdW  Elec       q    Type
REMARK                         _______ _______ _______ _____ _____    ______ ____
ROOT
ATOM      1  C   UNL     1      39.525  52.035  38.984  0.00  0.00    +0.000 C 
ENDROOT
BRANCH   1  11
ATOM      2  O   UNL     1      37.493  52.506  40.187  0.00  0.00    +0.000 OA
ATOM      3  N   UNL     1      39.056  51.254  41.309  0.00  0.00    +0.000 N 
ATOM      4  N   UNL     1      39.933  49.384  43.209  0.00  0.00    +0.000 N 
ATOM      5  N   UNL     1      38.251  49.602  44.572  0.00  0.00    +0.000 NA
ATOM      6  N   UNL     1      39.050  48.583  45.026  0.00  0.00    +0.000 NA
ATOM      7  C   UNL     1      38.218  51.149  42.542  0.00  0.00    +0.000 C 
ATOM      8  C   UNL     1      40.498  51.042  41.522  0.00  0.00    +0.000 C 
ATOM      9  C   UNL     1      38.768  50.065  43.452  0.00  0.00    +0.000 A 
ATOM     10  C   UNL     1      40.793  49.662  42.088  0.00  0.00    +0.000 C 
ATOM     11  C   UNL     1      38.599  51.975  40.200  0.00  0.00    +0.000 C 
ATOM     12  C   UNL     1      40.062  48.435  44.187  0.00  0.00    +0.000 A 
BRANCH  12  16
ATOM     13  F   UNL     1      40.817  46.339  44.995  0.00  0.00    +0.000 F 
ATOM     14  F   UNL     1      41.512  46.966  43.036  0.00  0.00    +0.000 F 
ATOM     15  F   UNL     1      42.282  47.932  44.839  0.00  0.00    +0.000 F 
ATOM     16  C   UNL     1      41.160  47.434  44.261  0.00  0.00    +0.000 C 
ENDBRANCH  12  16
BRANCH   7  17
ATOM     17  C   UNL     1      36.698  50.961  42.391  0.00  0.00    +0.000 C 
BRANCH  17  21
ATOM     18  F   UNL     1      36.601  52.746  43.981  0.00  0.00    +0.000 F 
ATOM     19  F   UNL     1      35.084  51.191  44.105  0.00  0.00    +0.000 F 
ATOM     20  F   UNL     1      35.033  52.623  42.474  0.00  0.00    +0.000 F 
ATOM     21  C   UNL     1      35.865  51.884  43.246  0.00  0.00    +0.000 C 
ENDBRANCH  17  21
ENDBRANCH   7  17
ENDBRANCH   1  11
BRANCH   1  22
ATOM     22  C   UNL     1      39.317  50.914  37.947  0.00  0.00    +0.000 C 
BRANCH  22  24
ATOM     23  O   UNL     1      41.069  48.826  38.932  0.00  0.00    +0.000 OA
ATOM     24  N   UNL     1      40.605  50.453  37.388  0.00  0.00    +0.000 N 
ATOM     25  C   UNL     1      41.417  49.544  38.009  0.00  0.00    +0.000 C 
ATOM     26  H   UNL     1      41.073  51.038  36.710  0.00  0.00    +0.000 HD
BRANCH  25  27
ATOM     27  O   UNL     1      42.666  49.615  37.483  0.00  0.00    +0.000 OA
BRANCH  27  28
ATOM     28  C   UNL     1      43.675  50.458  38.110  0.00  0.00    +0.000 C 
ATOM     29  C   UNL     1      44.489  49.673  39.145  0.00  0.00    +0.000 C 
ATOM     30  C   UNL     1      44.622  50.893  36.978  0.00  0.00    +0.000 C 
ATOM     31  C   UNL     1      43.056  51.727  38.712  0.00  0.00    +0.000 C 
ENDBRANCH  27  28
ENDBRANCH  25  27
ENDBRANCH  22  24
BRANCH  22  32
ATOM     32  C   UNL     1      38.347  51.345  36.816  0.00  0.00    +0.000 C 
BRANCH  32  36
ATOM     33  F   UNL     1      35.778  52.340  37.555  0.00  0.00    +0.000 F 
ATOM     34  F   UNL     1      35.946  47.267  35.586  0.00  0.00    +0.000 F 
ATOM     35  F   UNL     1      33.554  48.399  36.287  0.00  0.00    +0.000 F 
ATOM     36  C   UNL     1      37.072  50.534  36.724  0.00  0.00    +0.000 A 
ATOM     37  C   UNL     1      35.835  51.090  37.081  0.00  0.00    +0.000 A 
ATOM     38  C   UNL     1      37.098  49.225  36.219  0.00  0.00    +0.000 A 
ATOM     39  C   UNL     1      35.909  48.513  36.080  0.00  0.00    +0.000 A 
ATOM     40  C   UNL     1      34.649  50.377  36.947  0.00  0.00    +0.000 A 
ATOM     41  C   UNL     1      34.695  49.086  36.439  0.00  0.00    +0.000 A 
ENDBRANCH  32  36
ENDBRANCH  22  32
ENDBRANCH   1  22
TORSDOF 10
ENDMDL
MODEL 2
REMARK VINA RESULT:      -8.5     23.639     26.256
REMARK  Name = 24776690
REMARK  13 active torsions:
REMARK  status: ('A' for Active; 'I' for Inactive)
REMARK    1  A    between atoms: O_11  and  C_31
REMARK    2  A    between atoms: O_11  and  C_32
REMARK    3  A    between atoms: N_17  and  C_25
REMARK    4  A    between atoms: C_18  and  C_22
REMARK    5  A    between atoms: C_22  and  C_27
REMARK    6  A    between atoms: C_23  and  C_24
REMARK    7  A    between atoms: C_24  and  C_25
REMARK    8  A    between atoms: C_25  and  C_28
REMARK    9  A    between atoms: C_26  and  C_29
REMARK   10  A    between atoms: C_28  and  C_30
REMARK   11  A    between atoms: C_32  and  C_35
REMARK   12  A    between atoms: C_32  and  C_36
REMARK   13  A    between atoms: C_32  and  C_37
REMARK                            x       y       z     vdW  Elec       q    Type
REMARK                         _______ _______ _______ _____ _____    ______ ____
ROOT
ATOM      1  C   UNL     1      52.705  71.185  38.141  0.00  0.00    +0.000 C 
ENDROOT
BRANCH   1  11
ATOM      2  O   UNL     1      54.645  70.817  36.762  0.00  0.00    +0.000 OA
ATOM      3  N   UNL     1      55.033  70.968  39.020  0.00  0.00    +0.000 N 
ATOM      4  N   UNL     1      56.568  71.498  41.309  0.00  0.00    +0.000 N 
ATOM      5  N   UNL     1      58.513  71.180  40.387  0.00  0.00    +0.000 NA
ATOM      6  N   UNL     1      58.707  71.633  41.667  0.00  0.00    +0.000 NA
ATOM      7  C   UNL     1      56.504  70.751  38.871  0.00  0.00    +0.000 C 
ATOM      8  C   UNL     1      54.494  70.658  40.355  0.00  0.00    +0.000 C 
ATOM      9  C   UNL     1      57.217  71.130  40.158  0.00  0.00    +0.000 A 
ATOM     10  C   UNL     1      55.134  71.512  41.439  0.00  0.00    +0.000 C 
ATOM     11  C   UNL     1      54.199  70.961  37.896  0.00  0.00    +0.000 C 
ATOM     12  C   UNL     1      57.525  71.848  42.223  0.00  0.00    +0.000 A 
BRANCH  12  16
ATOM     13  F   UNL     1      58.117  73.351  43.957  0.00  0.00    +0.000 F 
ATOM     14  F   UNL     1      56.007  72.913  43.687  0.00  0.00    +0.000 F 
ATOM     15  F   UNL     1      57.343  71.410  44.542  0.00  0.00    +0.000 F 
ATOM     16  C   UNL     1      57.248  72.369  43.588  0.00  0.00    +0.000 C 
ENDBRANCH  12  16
BRANCH   7  17
ATOM     17  C   UNL     1      57.233  71.397  37.680  0.00  0.00    +0.000 C 
BRANCH  17  21
ATOM     18  F   UNL     1      57.744  70.564  35.497  0.00  0.00    +0.000 F 
ATOM     19  F   UNL     1      57.728  69.146  37.148  0.00  0.00    +0.000 F 
ATOM     20  F   UNL     1      59.335  70.596  36.984  0.00  0.00    +0.000 F 
ATOM     21  C   UNL     1      58.002  70.428  36.816  0.00  0.00    +0.000 C 
ENDBRANCH  17  21
ENDBRANCH   7  17
ENDBRANCH   1  11
BRANCH   1  22
ATOM     22  C   UNL     1      51.779  70.080  37.598  0.00  0.00    +0.000 C 
BRANCH  22  24
ATOM     23  O   UNL     1      51.854  67.338  36.661  0.00  0.00    +0.000 OA
ATOM     24  N   UNL     1      52.263  69.562  36.301  0.00  0.00    +0.000 N 
ATOM     25  C   UNL     1      52.374  68.231  36.011  0.00  0.00    +0.000 C 
ATOM     26  H   UNL     1      52.834  70.165  35.725  0.00  0.00    +0.000 HD
BRANCH  25  27
ATOM     27  O   UNL     1      53.191  68.063  34.941  0.00  0.00    +0.000 OA
BRANCH  27  28
ATOM     28  C   UNL     1      54.511  67.475  35.117  0.00  0.00    +0.000 C 
ATOM     29  C   UNL     1      54.896  67.406  36.599  0.00  0.00    +0.000 C 
ATOM     30  C   UNL     1      54.407  66.038  34.576  0.00  0.00    +0.000 C 
ATOM     31  C   UNL     1      55.572  68.209  34.284  0.00  0.00    +0.000 C 
ENDBRANCH  27  28
ENDBRANCH  25  27
ENDBRANCH  22  24
BRANCH  22  32
ATOM     32  C   UNL     1      50.308  70.560  37.489  0.00  0.00    +0.000 C 
BRANCH  32  36
ATOM     33  F   UNL     1      49.701  73.347  37.488  0.00  0.00    +0.000 F 
ATOM     34  F   UNL     1      48.760  70.654  42.126  0.00  0.00    +0.000 F 
ATOM     35  F   UNL     1      48.176  73.322  41.934  0.00  0.00    +0.000 F 
ATOM     36  C   UNL     1      49.789  71.308  38.698  0.00  0.00    +0.000 A 
ATOM     37  C   UNL     1      49.485  72.675  38.626  0.00  0.00    +0.000 A 
ATOM     38  C   UNL     1      49.541  70.628  39.901  0.00  0.00    +0.000 A 
ATOM     39  C   UNL     1      49.002  71.316  40.986  0.00  0.00    +0.000 A 
ATOM     40  C   UNL     1      48.953  73.362  39.711  0.00  0.00    +0.000 A 
ATOM     41  C   UNL     1      48.708  72.671  40.890  0.00  0.00    +0.000 A 
ENDBRANCH  32  36
ENDBRANCH  22  32
ENDBRANCH   1  22
TORSDOF 10
ENDMDL
MODEL 3
REMARK VINA RESULT:      -8.0      6.654      9.446
REMARK  Name = 24776690
REMARK  13 active torsions:
REMARK  status: ('A' for Active; 'I' for Inactive)
REMARK    1  A    between atoms: O_11  and  C_31
REMARK    2  A    between atoms: O_11  and  C_32
REMARK    3  A    between atoms: N_17  and  C_25
REMARK    4  A    between atoms: C_18  and  C_22
REMARK    5  A    between atoms: C_22  and  C_27
REMARK    6  A    between atoms: C_23  and  C_24
REMARK    7  A    between atoms: C_24  and  C_25
REMARK    8  A    between atoms: C_25  and  C_28
REMARK    9  A    between atoms: C_26  and  C_29
REMARK   10  A    between atoms: C_28  and  C_30
REMARK   11  A    between atoms: C_32  and  C_35
REMARK   12  A    between atoms: C_32  and  C_36
REMARK   13  A    between atoms: C_32  and  C_37
REMARK                            x       y       z     vdW  Elec       q    Type
REMARK                         _______ _______ _______ _____ _____    ______ ____
ROOT
ATOM      1  C   UNL     1      40.145  51.194  48.582  0.00  0.00    +0.000 C 
ENDROOT
BRANCH   1  11
ATOM      2  O   UNL     1      39.060  53.326  48.852  0.00  0.00    +0.000 OA
ATOM      3  N   UNL     1      38.335  51.649  50.241  0.00  0.00    +0.000 N 
ATOM      4  N   UNL     1      36.481  50.323  51.879  0.00  0.00    +0.000 N 
ATOM      5  N   UNL     1      35.295  52.075  52.386  0.00  0.00    +0.000 NA
ATOM      6  N   UNL     1      34.679  50.967  52.910  0.00  0.00    +0.000 NA
ATOM      7  C   UNL     1      37.343  52.528  50.931  0.00  0.00    +0.000 C 
ATOM      8  C   UNL     1      38.748  50.462  51.009  0.00  0.00    +0.000 C 
ATOM      9  C   UNL     1      36.368  51.681  51.732  0.00  0.00    +0.000 A 
ATOM     10  C   UNL     1      37.571  49.556  51.333  0.00  0.00    +0.000 C 
ATOM     11  C   UNL     1      39.154  52.163  49.229  0.00  0.00    +0.000 C 
ATOM     12  C   UNL     1      35.388  49.897  52.584  0.00  0.00    +0.000 A 
BRANCH  12  16
ATOM     13  F   UNL     1      36.048  47.907  53.690  0.00  0.00    +0.000 F 
ATOM     14  F   UNL     1      33.923  48.345  53.598  0.00  0.00    +0.000 F 
ATOM     15  F   UNL     1      34.993  47.696  51.806  0.00  0.00    +0.000 F 
ATOM     16  C   UNL     1      35.087  48.478  52.911  0.00  0.00    +0.000 C 
ENDBRANCH  12  16
BRANCH   7  17
ATOM     17  C   UNL     1      36.556  53.555  50.099  0.00  0.00    +0.000 C 
BRANCH  17  21
ATOM     18  F   UNL     1      36.918  54.983  51.983  0.00  0.00    +0.000 F 
ATOM     19  F   UNL     1      35.239  55.434  50.673  0.00  0.00    +0.000 F 
ATOM     20  F   UNL     1      37.269  55.796  49.993  0.00  0.00    +0.000 F 
ATOM     21  C   UNL     1      36.497  54.937  50.700  0.00  0.00    +0.000 C 
ENDBRANCH  17  21
ENDBRANCH   7  17
ENDBRANCH   1  11
BRANCH   1  22
ATOM     22  C   UNL     1      39.511  50.110  47.688  0.00  0.00    +0.000 C 
BRANCH  22  24
ATOM     23  O   UNL     1      40.203  47.385  46.983  0.00  0.00    +0.000 OA
ATOM     24  N   UNL     1      40.462  49.638  46.660  0.00  0.00    +0.000 N 
ATOM     25  C   UNL     1      40.812  48.326  46.498  0.00  0.00    +0.000 C 
ATOM     26  H   UNL     1      41.125  50.298  46.277  0.00  0.00    +0.000 HD
BRANCH  25  27
ATOM     27  O   UNL     1      41.958  48.245  45.776  0.00  0.00    +0.000 OA
BRANCH  27  28
ATOM     28  C   UNL     1      41.900  48.058  44.334  0.00  0.00    +0.000 C 
ATOM     29  C   UNL     1      40.465  48.192  43.813  0.00  0.00    +0.000 C 
ATOM     30  C   UNL     1      42.744  49.193  43.728  0.00  0.00    +0.000 C 
ATOM     31  C   UNL     1      42.540  46.728  43.911  0.00  0.00    +0.000 C 
ENDBRANCH  27  28
ENDBRANCH  25  27
ENDBRANCH  22  24
BRANCH  22  32
ATOM     32  C   UNL     1      38.190  50.597  47.038  0.00  0.00    +0.000 C 
BRANCH  32  36
ATOM     33  F   UNL     1      35.785  51.193  48.450  0.00  0.00    +0.000 F 
ATOM     34  F   UNL     1      36.016  46.347  45.980  0.00  0.00    +0.000 F 
ATOM     35  F   UNL     1      33.758  47.103  47.329  0.00  0.00    +0.000 F 
ATOM     36  C   UNL     1      37.026  49.637  47.159  0.00  0.00    +0.000 A 
ATOM     37  C   UNL     1      35.860  49.999  47.848  0.00  0.00    +0.000 A 
ATOM     38  C   UNL     1      37.070  48.384  46.529  0.00  0.00    +0.000 A 
ATOM     39  C   UNL     1      35.967  47.536  46.595  0.00  0.00    +0.000 A 
ATOM     40  C   UNL     1      34.761  49.151  47.919  0.00  0.00    +0.000 A 
ATOM     41  C   UNL     1      34.821  47.919  47.283  0.00  0.00    +0.000 A 
ENDBRANCH  32  36
ENDBRANCH  22  32
ENDBRANCH   1  22
TORSDOF 10
ENDMDL
MODEL 4
REMARK VINA RESULT:      -7.8     22.479     25.386
REMARK  Name = 24776690
REMARK  13 active torsions:
REMARK  status: ('A' for Active; 'I' for Inactive)
REMARK    1  A    between atoms: O_11  and  C_31
REMARK    2  A    between atoms: O_11  and  C_32
REMARK    3  A    between atoms: N_17  and  C_25
REMARK    4  A    between atoms: C_18  and  C_22
REMARK    5  A    between atoms: C_22  and  C_27
REMARK    6  A    between atoms: C_23  and  C_24
REMARK    7  A    between atoms: C_24  and  C_25
REMARK    8  A    between atoms: C_25  and  C_28
REMARK    9  A    between atoms: C_26  and  C_29
REMARK   10  A    between atoms: C_28  and  C_30
REMARK   11  A    between atoms: C_32  and  C_35
REMARK   12  A    between atoms: C_32  and  C_36
REMARK   13  A    between atoms: C_32  and  C_37
REMARK                            x       y       z     vdW  Elec       q    Type
REMARK                         _______ _______ _______ _____ _____    ______ ____
ROOT
ATOM      1  C   UNL     1      52.905  69.386  40.625  0.00  0.00    +0.000 C 
ENDROOT
BRANCH   1  11
ATOM      2  O   UNL     1      51.947  71.147  39.292  0.00  0.00    +0.000 OA
ATOM      3  N   UNL     1      50.520  70.113  40.763  0.00  0.00    +0.000 N 
ATOM      4  N   UNL     1      48.020  69.256  41.709  0.00  0.00    +0.000 N 
ATOM      5  N   UNL     1      46.833  70.761  40.682  0.00  0.00    +0.000 NA
ATOM      6  N   UNL     1      45.980  69.881  41.298  0.00  0.00    +0.000 NA
ATOM      7  C   UNL     1      49.359  70.971  40.378  0.00  0.00    +0.000 C 
ATOM      8  C   UNL     1      50.412  69.486  42.092  0.00  0.00    +0.000 C 
ATOM      9  C   UNL     1      48.069  70.363  40.902  0.00  0.00    +0.000 A 
ATOM     10  C   UNL     1      49.196  68.579  42.194  0.00  0.00    +0.000 C 
ATOM     11  C   UNL     1      51.772  70.305  40.167  0.00  0.00    +0.000 C 
ATOM     12  C   UNL     1      46.701  68.952  41.906  0.00  0.00    +0.000 A 
BRANCH  12  16
ATOM     13  F   UNL     1      46.616  66.595  42.143  0.00  0.00    +0.000 F 
ATOM     14  F   UNL     1      46.644  67.784  43.959  0.00  0.00    +0.000 F 
ATOM     15  F   UNL     1      44.849  67.718  42.715  0.00  0.00    +0.000 F 
ATOM     16  C   UNL     1      46.203  67.780  42.675  0.00  0.00    +0.000 C 
ENDBRANCH  12  16
BRANCH   7  17
ATOM     17  C   UNL     1      49.175  71.351  38.899  0.00  0.00    +0.000 C 
BRANCH  17  21
ATOM     18  F   UNL     1      49.726  73.368  37.737  0.00  0.00    +0.000 F 
ATOM     19  F   UNL     1      49.036  73.536  39.794  0.00  0.00    +0.000 F 
ATOM     20  F   UNL     1      47.635  73.000  38.225  0.00  0.00    +0.000 F 
ATOM     21  C   UNL     1      48.906  72.816  38.657  0.00  0.00    +0.000 C 
ENDBRANCH  17  21
ENDBRANCH   7  17
ENDBRANCH   1  11
BRANCH   1  22
ATOM     22  C   UNL     1      54.323  69.971  40.476  0.00  0.00    +0.000 C 
BRANCH  22  24
ATOM     23  O   UNL     1      55.597  71.804  38.628  0.00  0.00    +0.000 OA
ATOM     24  N   UNL     1      54.883  69.689  39.138  0.00  0.00    +0.000 N 
ATOM     25  C   UNL     1      55.347  70.658  38.292  0.00  0.00    +0.000 C 
ATOM     26  H   UNL     1      54.631  68.822  38.684  0.00  0.00    +0.000 HD
BRANCH  25  27
ATOM     27  O   UNL     1      55.421  70.164  37.030  0.00  0.00    +0.000 OA
BRANCH  27  28
ATOM     28  C   UNL     1      56.690  69.669  36.515  0.00  0.00    +0.000 C 
ATOM     29  C   UNL     1      57.190  68.470  37.330  0.00  0.00    +0.000 C 
ATOM     30  C   UNL     1      56.404  69.193  35.080  0.00  0.00    +0.000 C 
ATOM     31  C   UNL     1      57.741  70.785  36.434  0.00  0.00    +0.000 C 
ENDBRANCH  27  28
ENDBRANCH  25  27
ENDBRANCH  22  24
BRANCH  22  32
ATOM     32  C   UNL     1      55.276  69.467  41.592  0.00  0.00    +0.000 C 
BRANCH  32  36
ATOM     33  F   UNL     1      57.868  70.141  40.611  0.00  0.00    +0.000 F 
ATOM     34  F   UNL     1      56.053  73.019  44.861  0.00  0.00    +0.000 F 
ATOM     35  F   UNL     1      58.495  73.576  43.756  0.00  0.00    +0.000 F 
ATOM     36  C   UNL     1      56.158  70.531  42.208  0.00  0.00    +0.000 A 
ATOM     37  C   UNL     1      57.414  70.833  41.663  0.00  0.00    +0.000 A 
ATOM     38  C   UNL     1      55.705  71.282  43.304  0.00  0.00    +0.000 A 
ATOM     39  C   UNL     1      56.501  72.302  43.821  0.00  0.00    +0.000 A 
ATOM     40  C   UNL     1      58.211  71.847  42.182  0.00  0.00    +0.000 A 
ATOM     41  C   UNL     1      57.742  72.583  43.262  0.00  0.00    +0.000 A 
ENDBRANCH  32  36
ENDBRANCH  22  32
ENDBRANCH   1  22
TORSDOF 10
ENDMDL
MODEL 5
REMARK VINA RESULT:      -7.8      2.920      5.112
REMARK  Name = 24776690
REMARK  13 active torsions:
REMARK  status: ('A' for Active; 'I' for Inactive)
REMARK    1  A    between atoms: O_11  and  C_31
REMARK    2  A    between atoms: O_11  and  C_32
REMARK    3  A    between atoms: N_17  and  C_25
REMARK    4  A    between atoms: C_18  and  C_22
REMARK    5  A    between atoms: C_22  and  C_27
REMARK    6  A    between atoms: C_23  and  C_24
REMARK    7  A    between atoms: C_24  and  C_25
REMARK    8  A    between atoms: C_25  and  C_28
REMARK    9  A    between atoms: C_26  and  C_29
REMARK   10  A    between atoms: C_28  and  C_30
REMARK   11  A    between atoms: C_32  and  C_35
REMARK   12  A    between atoms: C_32  and  C_36
REMARK   13  A    between atoms: C_32  and  C_37
REMARK                            x       y       z     vdW  Elec       q    Type
REMARK                         _______ _______ _______ _____ _____    ______ ____
ROOT
ATOM      1  C   UNL     1      37.366  52.149  40.119  0.00  0.00    +0.000 C 
ENDROOT
BRANCH   1  11
ATOM      2  O   UNL     1      37.176  50.461  41.825  0.00  0.00    +0.000 OA
ATOM      3  N   UNL     1      36.648  52.601  42.468  0.00  0.00    +0.000 N 
ATOM      4  N   UNL     1      36.342  54.707  44.298  0.00  0.00    +0.000 N 
ATOM      5  N   UNL     1      36.072  53.468  46.065  0.00  0.00    +0.000 NA
ATOM      6  N   UNL     1      36.127  54.781  46.459  0.00  0.00    +0.000 NA
ATOM      7  C   UNL     1      36.314  52.194  43.866  0.00  0.00    +0.000 C 
ATOM      8  C   UNL     1      36.043  53.872  42.033  0.00  0.00    +0.000 C 
ATOM      9  C   UNL     1      36.236  53.420  44.759  0.00  0.00    +0.000 A 
ATOM     10  C   UNL     1      36.483  55.038  42.903  0.00  0.00    +0.000 C 
ATOM     11  C   UNL     1      37.049  51.645  41.527  0.00  0.00    +0.000 C 
ATOM     12  C   UNL     1      36.312  55.535  45.387  0.00  0.00    +0.000 A 
BRANCH  12  16
ATOM     13  F   UNL     1      36.378  57.588  46.568  0.00  0.00    +0.000 F 
ATOM     14  F   UNL     1      37.665  57.391  44.830  0.00  0.00    +0.000 F 
ATOM     15  F   UNL     1      35.504  57.610  44.582  0.00  0.00    +0.000 F 
ATOM     16  C   UNL     1      36.462  57.014  45.336  0.00  0.00    +0.000 C 
ENDBRANCH  12  16
BRANCH   7  17
ATOM     17  C   UNL     1      37.177  51.121  44.553  0.00  0.00    +0.000 C 
BRANCH  17  21
ATOM     18  F   UNL     1      35.512  49.495  44.001  0.00  0.00    +0.000 F 
ATOM     19  F   UNL     1      35.796  49.986  46.101  0.00  0.00    +0.000 F 
ATOM     20  F   UNL     1      37.299  48.824  45.051  0.00  0.00    +0.000 F 
ATOM     21  C   UNL     1      36.436  49.859  44.917  0.00  0.00    +0.000 C 
ENDBRANCH  17  21
ENDBRANCH   7  17
ENDBRANCH   1  11
BRANCH   1  22
ATOM     22  C   UNL     1      37.579  51.049  39.061  0.00  0.00    +0.000 C 
BRANCH  22  24
ATOM     23  O   UNL     1      39.890  52.795  38.961  0.00  0.00    +0.000 OA
ATOM     24  N   UNL     1      39.006  50.683  38.947  0.00  0.00    +0.000 N 
ATOM     25  C   UNL     1      40.011  51.595  38.776  0.00  0.00    +0.000 C 
ATOM     26  H   UNL     1      39.240  49.743  38.656  0.00  0.00    +0.000 HD
BRANCH  25  27
ATOM     27  O   UNL     1      41.123  50.968  38.316  0.00  0.00    +0.000 OA
BRANCH  27  28
ATOM     28  C   UNL     1      41.450  51.011  36.898  0.00  0.00    +0.000 C 
ATOM     29  C   UNL     1      40.599  52.052  36.162  0.00  0.00    +0.000 C 
ATOM     30  C   UNL     1      42.924  51.446  36.820  0.00  0.00    +0.000 C 
ATOM     31  C   UNL     1      41.341  49.622  36.252  0.00  0.00    +0.000 C 
ENDBRANCH  27  28
ENDBRANCH  25  27
ENDBRANCH  22  24
BRANCH  22  32
ATOM     32  C   UNL     1      36.999  51.453  37.681  0.00  0.00    +0.000 C 
BRANCH  32  36
ATOM     33  F   UNL     1      38.324  49.723  35.841  0.00  0.00    +0.000 F 
ATOM     34  F   UNL     1      33.034  48.764  36.704  0.00  0.00    +0.000 F 
ATOM     35  F   UNL     1      34.472  47.160  35.013  0.00  0.00    +0.000 F 
ATOM     36  C   UNL     1      36.306  50.339  36.927  0.00  0.00    +0.000 A 
ATOM     37  C   UNL     1      37.020  49.506  36.053  0.00  0.00    +0.000 A 
ATOM     38  C   UNL     1      34.944  50.079  37.138  0.00  0.00    +0.000 A 
ATOM     39  C   UNL     1      34.334  49.009  36.486  0.00  0.00    +0.000 A 
ATOM     40  C   UNL     1      36.410  48.442  35.398  0.00  0.00    +0.000 A 
ATOM     41  C   UNL     1      35.063  48.196  35.625  0.00  0.00    +0.000 A 
ENDBRANCH  32  36
ENDBRANCH  22  32
ENDBRANCH   1  22
TORSDOF 10
ENDMDL
MODEL 6
REMARK VINA RESULT:      -7.7      2.727      5.067
REMARK  Name = 24776690
REMARK  13 active torsions:
REMARK  status: ('A' for Active; 'I' for Inactive)
REMARK    1  A    between atoms: O_11  and  C_31
REMARK    2  A    between atoms: O_11  and  C_32
REMARK    3  A    between atoms: N_17  and  C_25
REMARK    4  A    between atoms: C_18  and  C_22
REMARK    5  A    between atoms: C_22  and  C_27
REMARK    6  A    between atoms: C_23  and  C_24
REMARK    7  A    between atoms: C_24  and  C_25
REMARK    8  A    between atoms: C_25  and  C_28
REMARK    9  A    between atoms: C_26  and  C_29
REMARK   10  A    between atoms: C_28  and  C_30
REMARK   11  A    between atoms: C_32  and  C_35
REMARK   12  A    between atoms: C_32  and  C_36
REMARK   13  A    between atoms: C_32  and  C_37
REMARK                            x       y       z     vdW  Elec       q    Type
REMARK                         _______ _______ _______ _____ _____    ______ ____
ROOT
ATOM      1  C   UNL     1      39.277  51.845  41.473  0.00  0.00    +0.000 C 
ENDROOT
BRANCH   1  11
ATOM      2  O   UNL     1      39.352  49.902  42.893  0.00  0.00    +0.000 OA
ATOM      3  N   UNL     1      37.658  51.392  43.320  0.00  0.00    +0.000 N 
ATOM      4  N   UNL     1      35.741  52.677  44.917  0.00  0.00    +0.000 N 
ATOM      5  N   UNL     1      35.512  51.077  46.372  0.00  0.00    +0.000 NA
ATOM      6  N   UNL     1      34.775  52.156  46.792  0.00  0.00    +0.000 NA
ATOM      7  C   UNL     1      37.100  50.573  44.438  0.00  0.00    +0.000 C 
ATOM      8  C   UNL     1      36.707  52.337  42.710  0.00  0.00    +0.000 C 
ATOM      9  C   UNL     1      36.125  51.405  45.253  0.00  0.00    +0.000 A 
ATOM     10  C   UNL     1      36.182  53.346  43.719  0.00  0.00    +0.000 C 
ATOM     11  C   UNL     1      38.776  50.946  42.605  0.00  0.00    +0.000 C 
ATOM     12  C   UNL     1      34.931  53.138  45.919  0.00  0.00    +0.000 A 
BRANCH  12  16
ATOM     13  F   UNL     1      33.554  54.683  47.074  0.00  0.00    +0.000 F 
ATOM     14  F   UNL     1      35.299  55.469  46.047  0.00  0.00    +0.000 F 
ATOM     15  F   UNL     1      33.564  54.786  44.906  0.00  0.00    +0.000 F 
ATOM     16  C   UNL     1      34.345  54.504  45.979  0.00  0.00    +0.000 C 
ENDBRANCH  12  16
BRANCH   7  17
ATOM     17  C   UNL     1      38.072  49.856  45.390  0.00  0.00    +0.000 C 
BRANCH  17  21
ATOM     18  F   UNL     1      37.660  48.114  46.977  0.00  0.00    +0.000 F 
ATOM     19  F   UNL     1      38.646  47.578  45.113  0.00  0.00    +0.000 F 
ATOM     20  F   UNL     1      36.537  48.093  45.110  0.00  0.00    +0.000 F 
ATOM     21  C   UNL     1      37.732  48.411  45.661  0.00  0.00    +0.000 C 
ENDBRANCH  17  21
ENDBRANCH   7  17
ENDBRANCH   1  11
BRANCH   1  22
ATOM     22  C   UNL     1      39.664  51.110  40.176  0.00  0.00    +0.000 C 
BRANCH  22  24
ATOM     23  O   UNL     1      40.995  48.731  39.190  0.00  0.00    +0.000 OA
ATOM     24  N   UNL     1      41.112  50.813  40.137  0.00  0.00    +0.000 N 
ATOM     25  C   UNL     1      41.626  49.601  39.769  0.00  0.00    +0.000 C 
ATOM     26  H   UNL     1      41.734  51.380  40.696  0.00  0.00    +0.000 HD
BRANCH  25  27
ATOM     27  O   UNL     1      42.909  49.500  40.200  0.00  0.00    +0.000 OA
BRANCH  27  28
ATOM     28  C   UNL     1      43.287  48.440  41.124  0.00  0.00    +0.000 C 
ATOM     29  C   UNL     1      43.794  47.204  40.373  0.00  0.00    +0.000 C 
ATOM     30  C   UNL     1      44.445  49.006  41.963  0.00  0.00    +0.000 C 
ATOM     31  C   UNL     1      42.141  48.094  42.086  0.00  0.00    +0.000 C 
ENDBRANCH  27  28
ENDBRANCH  25  27
ENDBRANCH  22  24
BRANCH  22  32
ATOM     32  C   UNL     1      39.227  51.897  38.912  0.00  0.00    +0.000 C 
BRANCH  32  36
ATOM     33  F   UNL     1      40.457  50.519  36.739  0.00  0.00    +0.000 F 
ATOM     34  F   UNL     1      35.055  50.014  37.195  0.00  0.00    +0.000 F 
ATOM     35  F   UNL     1      36.401  48.708  35.201  0.00  0.00    +0.000 F 
ATOM     36  C   UNL     1      38.461  51.088  37.889  0.00  0.00    +0.000 A 
ATOM     37  C   UNL     1      39.127  50.413  36.856  0.00  0.00    +0.000 A 
ATOM     38  C   UNL     1      37.068  50.949  37.991  0.00  0.00    +0.000 A 
ATOM     39  C   UNL     1      36.383  50.149  37.080  0.00  0.00    +0.000 A 
ATOM     40  C   UNL     1      38.443  49.619  35.942  0.00  0.00    +0.000 A 
ATOM     41  C   UNL     1      37.066  49.488  36.065  0.00  0.00    +0.000 A 
ENDBRANCH  32  36
ENDBRANCH  22  32
ENDBRANCH   1  22
TORSDOF 10
ENDMDL
MODEL 7
REMARK VINA RESULT:      -7.7     23.430     26.136
REMARK  Name = 24776690
REMARK  13 active torsions:
REMARK  status: ('A' for Active; 'I' for Inactive)
REMARK    1  A    between atoms: O_11  and  C_31
REMARK    2  A    between atoms: O_11  and  C_32
REMARK    3  A    between atoms: N_17  and  C_25
REMARK    4  A    between atoms: C_18  and  C_22
REMARK    5  A    between atoms: C_22  and  C_27
REMARK    6  A    between atoms: C_23  and  C_24
REMARK    7  A    between atoms: C_24  and  C_25
REMARK    8  A    between atoms: C_25  and  C_28
REMARK    9  A    between atoms: C_26  and  C_29
REMARK   10  A    between atoms: C_28  and  C_30
REMARK   11  A    between atoms: C_32  and  C_35
REMARK   12  A    between atoms: C_32  and  C_36
REMARK   13  A    between atoms: C_32  and  C_37
REMARK                            x       y       z     vdW  Elec       q    Type
REMARK                         _______ _______ _______ _____ _____    ______ ____
ROOT
ATOM      1  C   UNL     1      53.679  68.492  39.213  0.00  0.00    +0.000 C 
ENDROOT
BRANCH   1  11
ATOM      2  O   UNL     1      55.397  68.861  37.567  0.00  0.00    +0.000 OA
ATOM      3  N   UNL     1      55.888  69.550  39.701  0.00  0.00    +0.000 N 
ATOM      4  N   UNL     1      57.188  71.114  41.636  0.00  0.00    +0.000 N 
ATOM      5  N   UNL     1      58.932  71.604  40.433  0.00  0.00    +0.000 NA
ATOM      6  N   UNL     1      59.008  72.301  41.612  0.00  0.00    +0.000 NA
ATOM      7  C   UNL     1      57.252  70.033  39.327  0.00  0.00    +0.000 C 
ATOM      8  C   UNL     1      55.710  69.249  41.132  0.00  0.00    +0.000 C 
ATOM      9  C   UNL     1      57.812  70.911  40.433  0.00  0.00    +0.000 A 
ATOM     10  C   UNL     1      55.953  70.469  42.005  0.00  0.00    +0.000 C 
ATOM     11  C   UNL     1      55.056  68.963  38.741  0.00  0.00    +0.000 C 
ATOM     12  C   UNL     1      57.936  72.021  42.337  0.00  0.00    +0.000 A 
BRANCH  12  16
ATOM     13  F   UNL     1      58.342  73.642  44.017  0.00  0.00    +0.000 F 
ATOM     14  F   UNL     1      56.290  72.993  43.725  0.00  0.00    +0.000 F 
ATOM     15  F   UNL     1      57.743  71.661  44.669  0.00  0.00    +0.000 F 
ATOM     16  C   UNL     1      57.578  72.567  43.673  0.00  0.00    +0.000 C 
ENDBRANCH  12  16
BRANCH   7  17
ATOM     17  C   UNL     1      57.444  70.738  37.974  0.00  0.00    +0.000 C 
BRANCH  17  21
ATOM     18  F   UNL     1      58.487  68.730  37.198  0.00  0.00    +0.000 F 
ATOM     19  F   UNL     1      59.691  70.541  37.260  0.00  0.00    +0.000 F 
ATOM     20  F   UNL     1      58.135  70.328  35.761  0.00  0.00    +0.000 F 
ATOM     21  C   UNL     1      58.439  70.072  37.055  0.00  0.00    +0.000 C 
ENDBRANCH  17  21
ENDBRANCH   7  17
ENDBRANCH   1  11
BRANCH   1  22
ATOM     22  C   UNL     1      52.483  69.237  38.589  0.00  0.00    +0.000 C 
BRANCH  22  24
ATOM     23  O   UNL     1      51.451  67.218  36.784  0.00  0.00    +0.000 OA
ATOM     24  N   UNL     1      52.540  69.206  37.113  0.00  0.00    +0.000 N 
ATOM     25  C   UNL     1      52.135  68.137  36.362  0.00  0.00    +0.000 C 
ATOM     26  H   UNL     1      53.183  69.828  36.643  0.00  0.00    +0.000 HD
BRANCH  25  27
ATOM     27  O   UNL     1      52.659  68.231  35.115  0.00  0.00    +0.000 OA
BRANCH  27  28
ATOM     28  C   UNL     1      53.323  67.083  34.514  0.00  0.00    +0.000 C 
ATOM     29  C   UNL     1      52.324  66.189  33.771  0.00  0.00    +0.000 C 
ATOM     30  C   UNL     1      54.314  67.660  33.487  0.00  0.00    +0.000 C 
ATOM     31  C   UNL     1      54.136  66.295  35.551  0.00  0.00    +0.000 C 
ENDBRANCH  27  28
ENDBRANCH  25  27
ENDBRANCH  22  24
BRANCH  22  32
ATOM     32  C   UNL     1      52.377  70.696  39.108  0.00  0.00    +0.000 C 
BRANCH  32  36
ATOM     33  F   UNL     1      51.653  70.155  41.813  0.00  0.00    +0.000 F 
ATOM     34  F   UNL     1      47.970  72.790  38.790  0.00  0.00    +0.000 F 
ATOM     35  F   UNL     1      47.461  72.245  41.425  0.00  0.00    +0.000 F 
ATOM     36  C   UNL     1      51.038  71.064  39.709  0.00  0.00    +0.000 A 
ATOM     37  C   UNL     1      50.752  70.792  41.055  0.00  0.00    +0.000 A 
ATOM     38  C   UNL     1      50.077  71.743  38.944  0.00  0.00    +0.000 A 
ATOM     39  C   UNL     1      48.874  72.133  39.529  0.00  0.00    +0.000 A 
ATOM     40  C   UNL     1      49.549  71.176  41.637  0.00  0.00    +0.000 A 
ATOM     41  C   UNL     1      48.615  71.853  40.865  0.00  0.00    +0.000 A 
ENDBRANCH  32  36
ENDBRANCH  22  32
ENDBRANCH   1  22
TORSDOF 10
ENDMDL
MODEL 8
REMARK VINA RESULT:      -7.7     23.592     26.357
REMARK  Name = 24776690
REMARK  13 active torsions:
REMARK  status: ('A' for Active; 'I' for Inactive)
REMARK    1  A    between atoms: O_11  and  C_31
REMARK    2  A    between atoms: O_11  and  C_32
REMARK    3  A    between atoms: N_17  and  C_25
REMARK    4  A    between atoms: C_18  and  C_22
REMARK    5  A    between atoms: C_22  and  C_27
REMARK    6  A    between atoms: C_23  and  C_24
REMARK    7  A    between atoms: C_24  and  C_25
REMARK    8  A    between atoms: C_25  and  C_28
REMARK    9  A    between atoms: C_26  and  C_29
REMARK   10  A    between atoms: C_28  and  C_30
REMARK   11  A    between atoms: C_32  and  C_35
REMARK   12  A    between atoms: C_32  and  C_36
REMARK   13  A    between atoms: C_32  and  C_37
REMARK                            x       y       z     vdW  Elec       q    Type
REMARK                         _______ _______ _______ _____ _____    ______ ____
ROOT
ATOM      1  C   UNL     1      53.627  71.603  37.840  0.00  0.00    +0.000 C 
ENDROOT
BRANCH   1  11
ATOM      2  O   UNL     1      54.813  70.471  36.077  0.00  0.00    +0.000 OA
ATOM      3  N   UNL     1      55.961  70.740  38.046  0.00  0.00    +0.000 N 
ATOM      4  N   UNL     1      58.258  70.995  39.639  0.00  0.00    +0.000 N 
ATOM      5  N   UNL     1      59.615  69.960  38.292  0.00  0.00    +0.000 NA
ATOM      6  N   UNL     1      60.344  70.466  39.338  0.00  0.00    +0.000 NA
ATOM      7  C   UNL     1      57.179  70.040  37.535  0.00  0.00    +0.000 C 
ATOM      8  C   UNL     1      55.839  70.775  39.514  0.00  0.00    +0.000 C 
ATOM      9  C   UNL     1      58.356  70.309  38.457  0.00  0.00    +0.000 A 
ATOM     10  C   UNL     1      57.011  71.490  40.166  0.00  0.00    +0.000 C 
ATOM     11  C   UNL     1      54.830  70.878  37.234  0.00  0.00    +0.000 C 
ATOM     12  C   UNL     1      59.522  71.115  40.149  0.00  0.00    +0.000 A 
BRANCH  12  16
ATOM     13  F   UNL     1      61.218  71.974  41.564  0.00  0.00    +0.000 F 
ATOM     14  F   UNL     1      59.376  73.112  41.403  0.00  0.00    +0.000 F 
ATOM     15  F   UNL     1      59.414  71.229  42.511  0.00  0.00    +0.000 F 
ATOM     16  C   UNL     1      59.872  71.848  41.395  0.00  0.00    +0.000 C 
ENDBRANCH  12  16
BRANCH   7  17
ATOM     17  C   UNL     1      57.613  70.275  36.078  0.00  0.00    +0.000 C 
BRANCH  17  21
ATOM     18  F   UNL     1      56.671  68.166  35.458  0.00  0.00    +0.000 F 
ATOM     19  F   UNL     1      58.839  68.349  35.463  0.00  0.00    +0.000 F 
ATOM     20  F   UNL     1      57.676  69.336  33.920  0.00  0.00    +0.000 F 
ATOM     21  C   UNL     1      57.690  69.025  35.237  0.00  0.00    +0.000 C 
ENDBRANCH  17  21
ENDBRANCH   7  17
ENDBRANCH   1  11
BRANCH   1  22
ATOM     22  C   UNL     1      52.426  70.701  38.187  0.00  0.00    +0.000 C 
BRANCH  22  24
ATOM     23  O   UNL     1      52.773  68.354  39.852  0.00  0.00    +0.000 OA
ATOM     24  N   UNL     1      52.665  69.304  37.771  0.00  0.00    +0.000 N 
ATOM     25  C   UNL     1      52.945  68.290  38.645  0.00  0.00    +0.000 C 
ATOM     26  H   UNL     1      52.958  69.128  36.819  0.00  0.00    +0.000 HD
BRANCH  25  27
ATOM     27  O   UNL     1      53.493  67.247  37.974  0.00  0.00    +0.000 OA
BRANCH  27  28
ATOM     28  C   UNL     1      52.642  66.183  37.459  0.00  0.00    +0.000 C 
ATOM     29  C   UNL     1      51.161  66.484  37.714  0.00  0.00    +0.000 C 
ATOM     30  C   UNL     1      52.876  66.155  35.938  0.00  0.00    +0.000 C 
ATOM     31  C   UNL     1      53.052  64.813  38.017  0.00  0.00    +0.000 C 
ENDBRANCH  27  28
ENDBRANCH  25  27
ENDBRANCH  22  24
BRANCH  22  32
ATOM     32  C   UNL     1      51.104  71.241  37.582  0.00  0.00    +0.000 C 
BRANCH  32  36
ATOM     33  F   UNL     1      49.915  69.485  39.488  0.00  0.00    +0.000 F 
ATOM     34  F   UNL     1      48.385  74.705  39.706  0.00  0.00    +0.000 F 
ATOM     35  F   UNL     1      47.386  72.896  41.502  0.00  0.00    +0.000 F 
ATOM     36  C   UNL     1      50.068  71.677  38.595  0.00  0.00    +0.000 A 
ATOM     37  C   UNL     1      49.539  70.769  39.523  0.00  0.00    +0.000 A 
ATOM     38  C   UNL     1      49.662  73.019  38.664  0.00  0.00    +0.000 A 
ATOM     39  C   UNL     1      48.756  73.419  39.643  0.00  0.00    +0.000 A 
ATOM     40  C   UNL     1      48.630  71.167  40.497  0.00  0.00    +0.000 A 
ATOM     41  C   UNL     1      48.247  72.500  40.553  0.00  0.00    +0.000 A 
ENDBRANCH  32  36
ENDBRANCH  22  32
ENDBRANCH   1  22
TORSDOF 10
ENDMDL
MODEL 9
REMARK VINA RESULT:      -7.0     22.704     25.541
REMARK  Name = 24776690
REMARK  13 active torsions:
REMARK  status: ('A' for Active; 'I' for Inactive)
REMARK    1  A    between atoms: O_11  and  C_31
REMARK    2  A    between atoms: O_11  and  C_32
REMARK    3  A    between atoms: N_17  and  C_25
REMARK    4  A    between atoms: C_18  and  C_22
REMARK    5  A    between atoms: C_22  and  C_27
REMARK    6  A    between atoms: C_23  and  C_24
REMARK    7  A    between atoms: C_24  and  C_25
REMARK    8  A    between atoms: C_25  and  C_28
REMARK    9  A    between atoms: C_26  and  C_29
REMARK   10  A    between atoms: C_28  and  C_30
REMARK   11  A    between atoms: C_32  and  C_35
REMARK   12  A    between atoms: C_32  and  C_36
REMARK   13  A    between atoms: C_32  and  C_37
REMARK                            x       y       z     vdW  Elec       q    Type
REMARK                         _______ _______ _______ _____ _____    ______ ____
ROOT
ATOM      1  C   UNL     1      52.968  69.124  39.821  0.00  0.00    +0.000 C 
ENDROOT
BRANCH   1  11
ATOM      2  O   UNL     1      54.193  71.164  39.453  0.00  0.00    +0.000 OA
ATOM      3  N   UNL     1      55.460  69.289  39.841  0.00  0.00    +0.000 N 
ATOM      4  N   UNL     1      57.741  67.887  40.683  0.00  0.00    +0.000 N 
ATOM      5  N   UNL     1      59.154  69.518  40.408  0.00  0.00    +0.000 NA
ATOM      6  N   UNL     1      59.813  68.466  40.992  0.00  0.00    +0.000 NA
ATOM      7  C   UNL     1      56.753  70.027  39.708  0.00  0.00    +0.000 C 
ATOM      8  C   UNL     1      55.553  67.835  39.623  0.00  0.00    +0.000 C 
ATOM      9  C   UNL     1      57.891  69.180  40.252  0.00  0.00    +0.000 A 
ATOM     10  C   UNL     1      56.494  67.170  40.615  0.00  0.00    +0.000 C 
ATOM     11  C   UNL     1      54.242  69.958  39.673  0.00  0.00    +0.000 C 
ATOM     12  C   UNL     1      58.950  67.480  41.179  0.00  0.00    +0.000 A 
BRANCH  12  16
ATOM     13  F   UNL     1      60.491  66.034  42.252  0.00  0.00    +0.000 F 
ATOM     14  F   UNL     1      58.417  65.938  42.889  0.00  0.00    +0.000 F 
ATOM     15  F   UNL     1      59.013  65.124  40.950  0.00  0.00    +0.000 F 
ATOM     16  C   UNL     1      59.209  66.157  41.807  0.00  0.00    +0.000 C 
ENDBRANCH  12  16
BRANCH   7  17
ATOM     17  C   UNL     1      56.859  71.449  40.285  0.00  0.00    +0.000 C 
BRANCH  17  21
ATOM     18  F   UNL     1      56.484  70.333  42.368  0.00  0.00    +0.000 F 
ATOM     19  F   UNL     1      55.565  72.285  42.080  0.00  0.00    +0.000 F 
ATOM     20  F   UNL     1      57.711  72.134  42.370  0.00  0.00    +0.000 F 
ATOM     21  C   UNL     1      56.650  71.536  41.777  0.00  0.00    +0.000 C 
ENDBRANCH  17  21
ENDBRANCH   7  17
ENDBRANCH   1  11
BRANCH   1  22
ATOM     22  C   UNL     1      52.036  69.551  40.971  0.00  0.00    +0.000 C 
BRANCH  22  24
ATOM     23  O   UNL     1      49.783  69.559  39.149  0.00  0.00    +0.000 OA
ATOM     24  N   UNL     1      51.177  70.685  40.574  0.00  0.00    +0.000 N 
ATOM     25  C   UNL     1      50.218  70.605  39.603  0.00  0.00    +0.000 C 
ATOM     26  H   UNL     1      51.498  71.624  40.769  0.00  0.00    +0.000 HD
BRANCH  25  27
ATOM     27  O   UNL     1      49.880  71.853  39.191  0.00  0.00    +0.000 OA
BRANCH  27  28
ATOM     28  C   UNL     1      48.507  72.318  39.321  0.00  0.00    +0.000 C 
ATOM     29  C   UNL     1      47.826  71.704  40.549  0.00  0.00    +0.000 C 
ATOM     30  C   UNL     1      48.596  73.841  39.527  0.00  0.00    +0.000 C 
ATOM     31  C   UNL     1      47.703  72.070  38.036  0.00  0.00    +0.000 C 
ENDBRANCH  27  28
ENDBRANCH  25  27
ENDBRANCH  22  24
BRANCH  22  32
ATOM     32  C   UNL     1      52.827  69.882  42.264  0.00  0.00    +0.000 C 
BRANCH  32  36
ATOM     33  F   UNL     1      50.778  68.563  43.745  0.00  0.00    +0.000 F 
ATOM     34  F   UNL     1      55.809  66.538  44.221  0.00  0.00    +0.000 F 
ATOM     35  F   UNL     1      53.714  65.355  45.528  0.00  0.00    +0.000 F 
ATOM     36  C   UNL     1      53.078  68.703  43.179  0.00  0.00    +0.000 A 
ATOM     37  C   UNL     1      52.022  68.082  43.862  0.00  0.00    +0.000 A 
ATOM     38  C   UNL     1      54.369  68.170  43.314  0.00  0.00    +0.000 A 
ATOM     39  C   UNL     1      54.574  67.045  44.110  0.00  0.00    +0.000 A 
ATOM     40  C   UNL     1      52.228  66.963  44.661  0.00  0.00    +0.000 A 
ATOM     41  C   UNL     1      53.511  66.446  44.776  0.00  0.00    +0.000 A 
ENDBRANCH  32  36
ENDBRANCH  22  32
ENDBRANCH   1  22
TORSDOF 10
ENDMDL
