MODEL 1
REMARK VINA RESULT:      -8.7      0.000      0.000
REMARK  Name = 9953181
REMARK  6 active torsions:
REMARK  status: ('A' for Active; 'I' for Inactive)
REMARK    1  A    between atoms: N_12  and  C_16
REMARK    2  A    between atoms: C_16  and  C_17
REMARK    3  A    between atoms: C_16  and  C_20
REMARK    4  A    between atoms: C_17  and  C_19
REMARK    5  A    between atoms: C_20  and  C_21
REMARK    6  A    between atoms: C_22  and  C_25
REMARK                            x       y       z     vdW  Elec       q    Type
REMARK                         _______ _______ _______ _____ _____    ______ ____
ROOT
ATOM      1  C   UNL     1      40.477  51.016  35.301  0.00  0.00    +0.000 C 
ENDROOT
BRANCH   1  11
ATOM      2  O   UNL     1      39.988  52.651  36.997  0.00  0.00    +0.000 OA
ATOM      3  N   UNL     1      42.141  51.858  36.951  0.00  0.00    +0.000 N 
ATOM      4  N   UNL     1      44.668  52.931  37.045  0.00  0.00    +0.000 N 
ATOM      5  N   UNL     1      45.611  51.490  35.713  0.00  0.00    +0.000 NA
ATOM      6  N   UNL     1      45.898  53.439  36.885  0.00  0.00    +0.000 NA
ATOM      7  C   UNL     1      42.523  52.628  38.145  0.00  0.00    +0.000 C 
ATOM      8  C   UNL     1      43.210  51.011  36.394  0.00  0.00    +0.000 C 
ATOM      9  C   UNL     1      43.647  53.607  37.817  0.00  0.00    +0.000 C 
ATOM     10  C   UNL     1      44.495  51.769  36.352  0.00  0.00    +0.000 A 
ATOM     11  C   UNL     1      40.830  51.923  36.474  0.00  0.00    +0.000 C 
ATOM     12  C   UNL     1      46.465  52.541  36.047  0.00  0.00    +0.000 A 
BRANCH  12  16
ATOM     13  F   UNL     1      47.972  53.545  34.472  0.00  0.00    +0.000 F 
ATOM     14  F   UNL     1      48.752  53.110  36.460  0.00  0.00    +0.000 F 
ATOM     15  F   UNL     1      48.369  51.483  35.053  0.00  0.00    +0.000 F 
ATOM     16  C   UNL     1      47.879  52.669  35.511  0.00  0.00    +0.000 C 
ENDBRANCH  12  16
ENDBRANCH   1  11
BRANCH   1  17
ATOM     17  C   UNL     1      38.999  50.585  35.174  0.00  0.00    +0.000 C 
BRANCH  17  18
ATOM     18  N   UNL     1      38.262  51.771  34.682  0.00  0.00    +0.000 NA
ATOM     19  H   UNL     1      37.495  51.988  35.320  0.00  0.00    +0.000 HD
ATOM     20  H   UNL     1      38.873  52.587  34.699  0.00  0.00    +0.000 HD
ENDBRANCH  17  18
BRANCH  17  21
ATOM     21  C   UNL     1      38.424  50.128  36.540  0.00  0.00    +0.000 C 
BRANCH  21  25
ATOM     22  F   UNL     1      36.265  51.783  37.446  0.00  0.00    +0.000 F 
ATOM     23  F   UNL     1      34.933  46.835  35.592  0.00  0.00    +0.000 F 
ATOM     24  F   UNL     1      32.983  48.576  36.406  0.00  0.00    +0.000 F 
ATOM     25  C   UNL     1      36.971  49.695  36.570  0.00  0.00    +0.000 A 
ATOM     26  C   UNL     1      35.954  50.562  36.994  0.00  0.00    +0.000 A 
ATOM     27  C   UNL     1      36.605  48.420  36.105  0.00  0.00    +0.000 A 
ATOM     28  C   UNL     1      35.264  48.046  36.056  0.00  0.00    +0.000 A 
ATOM     29  C   UNL     1      34.610  50.191  36.947  0.00  0.00    +0.000 A 
ATOM     30  C   UNL     1      34.274  48.932  36.469  0.00  0.00    +0.000 A 
ENDBRANCH  21  25
ENDBRANCH  17  21
ENDBRANCH   1  17
TORSDOF 6
ENDMDL
MODEL 2
REMARK VINA RESULT:      -8.5     25.248     28.628
REMARK  Name = 9953181
REMARK  6 active torsions:
REMARK  status: ('A' for Active; 'I' for Inactive)
REMARK    1  A    between atoms: N_12  and  C_16
REMARK    2  A    between atoms: C_16  and  C_17
REMARK    3  A    between atoms: C_16  and  C_20
REMARK    4  A    between atoms: C_17  and  C_19
REMARK    5  A    between atoms: C_20  and  C_21
REMARK    6  A    between atoms: C_22  and  C_25
REMARK                            x       y       z     vdW  Elec       q    Type
REMARK                         _______ _______ _______ _____ _____    ______ ____
ROOT
ATOM      1  C   UNL     1      46.369  74.388  48.837  0.00  0.00    +0.000 C 
ENDROOT
BRANCH   1  11
ATOM      2  O   UNL     1      44.774  73.315  50.284  0.00  0.00    +0.000 OA
ATOM      3  N   UNL     1      46.547  72.027  49.605  0.00  0.00    +0.000 N 
ATOM      4  N   UNL     1      48.344  70.319  50.788  0.00  0.00    +0.000 N 
ATOM      5  N   UNL     1      50.046  70.816  49.524  0.00  0.00    +0.000 NA
ATOM      6  N   UNL     1      49.349  69.648  51.369  0.00  0.00    +0.000 NA
ATOM      7  C   UNL     1      46.024  70.829  50.281  0.00  0.00    +0.000 C 
ATOM      8  C   UNL     1      47.805  71.819  48.867  0.00  0.00    +0.000 C 
ATOM      9  C   UNL     1      47.006  70.335  51.340  0.00  0.00    +0.000 C 
ATOM     10  C   UNL     1      48.755  71.012  49.688  0.00  0.00    +0.000 A 
ATOM     11  C   UNL     1      45.823  73.219  49.649  0.00  0.00    +0.000 C 
ATOM     12  C   UNL     1      50.398  69.977  50.581  0.00  0.00    +0.000 A 
BRANCH  12  16
ATOM     13  F   UNL     1      52.738  70.495  50.720  0.00  0.00    +0.000 F 
ATOM     14  F   UNL     1      51.972  68.968  52.074  0.00  0.00    +0.000 F 
ATOM     15  F   UNL     1      52.197  68.531  49.945  0.00  0.00    +0.000 F 
ATOM     16  C   UNL     1      51.816  69.497  50.827  0.00  0.00    +0.000 C 
ENDBRANCH  12  16
ENDBRANCH   1  11
BRANCH   1  17
ATOM     17  C   UNL     1      46.567  75.724  49.587  0.00  0.00    +0.000 C 
BRANCH  17  18
ATOM     18  N   UNL     1      45.213  76.204  49.945  0.00  0.00    +0.000 NA
ATOM     19  H   UNL     1      45.286  77.035  50.533  0.00  0.00    +0.000 HD
ATOM     20  H   UNL     1      44.721  76.505  49.104  0.00  0.00    +0.000 HD
ENDBRANCH  17  18
BRANCH  17  21
ATOM     21  C   UNL     1      47.285  76.771  48.696  0.00  0.00    +0.000 C 
BRANCH  21  25
ATOM     22  F   UNL     1      48.340  79.258  47.735  0.00  0.00    +0.000 F 
ATOM     23  F   UNL     1      50.831  77.058  52.054  0.00  0.00    +0.000 F 
ATOM     24  F   UNL     1      51.652  79.477  51.070  0.00  0.00    +0.000 F 
ATOM     25  C   UNL     1      48.496  77.469  49.284  0.00  0.00    +0.000 A 
ATOM     26  C   UNL     1      48.945  78.702  48.792  0.00  0.00    +0.000 A 
ATOM     27  C   UNL     1      49.160  76.915  50.392  0.00  0.00    +0.000 A 
ATOM     28  C   UNL     1      50.223  77.591  50.987  0.00  0.00    +0.000 A 
ATOM     29  C   UNL     1      50.010  79.381  49.383  0.00  0.00    +0.000 A 
ATOM     30  C   UNL     1      50.639  78.821  50.487  0.00  0.00    +0.000 A 
ENDBRANCH  21  25
ENDBRANCH  17  21
ENDBRANCH   1  17
TORSDOF 6
ENDMDL
MODEL 3
REMARK VINA RESULT:      -8.1     22.697     24.915
REMARK  Name = 9953181
REMARK  6 active torsions:
REMARK  status: ('A' for Active; 'I' for Inactive)
REMARK    1  A    between atoms: N_12  and  C_16
REMARK    2  A    between atoms: C_16  and  C_17
REMARK    3  A    between atoms: C_16  and  C_20
REMARK    4  A    between atoms: C_17  and  C_19
REMARK    5  A    between atoms: C_20  and  C_21
REMARK    6  A    between atoms: C_22  and  C_25
REMARK                            x       y       z     vdW  Elec       q    Type
REMARK                         _______ _______ _______ _____ _____    ______ ____
ROOT
ATOM      1  C   UNL     1      53.922  71.526  37.564  0.00  0.00    +0.000 C 
ENDROOT
BRANCH   1  11
ATOM      2  O   UNL     1      54.851  69.984  35.967  0.00  0.00    +0.000 OA
ATOM      3  N   UNL     1      56.361  71.226  37.168  0.00  0.00    +0.000 N 
ATOM      4  N   UNL     1      58.685  70.751  38.553  0.00  0.00    +0.000 N 
ATOM      5  N   UNL     1      58.366  72.238  40.112  0.00  0.00    +0.000 NA
ATOM      6  N   UNL     1      59.699  70.515  39.398  0.00  0.00    +0.000 NA
ATOM      7  C   UNL     1      57.507  70.671  36.430  0.00  0.00    +0.000 C 
ATOM      8  C   UNL     1      56.711  72.234  38.183  0.00  0.00    +0.000 C 
ATOM      9  C   UNL     1      58.454  69.939  37.378  0.00  0.00    +0.000 C 
ATOM     10  C   UNL     1      57.893  71.778  38.973  0.00  0.00    +0.000 A 
ATOM     11  C   UNL     1      55.065  70.830  36.835  0.00  0.00    +0.000 C 
ATOM     12  C   UNL     1      59.479  71.436  40.364  0.00  0.00    +0.000 A 
BRANCH  12  16
ATOM     13  F   UNL     1      60.587  72.875  41.934  0.00  0.00    +0.000 F 
ATOM     14  F   UNL     1      59.769  71.005  42.699  0.00  0.00    +0.000 F 
ATOM     15  F   UNL     1      61.563  70.987  41.453  0.00  0.00    +0.000 F 
ATOM     16  C   UNL     1      60.344  71.575  41.603  0.00  0.00    +0.000 C 
ENDBRANCH  12  16
ENDBRANCH   1  11
BRANCH   1  17
ATOM     17  C   UNL     1      53.141  70.685  38.598  0.00  0.00    +0.000 C 
BRANCH  17  18
ATOM     18  N   UNL     1      53.798  69.359  38.636  0.00  0.00    +0.000 NA
ATOM     19  H   UNL     1      53.343  68.769  39.333  0.00  0.00    +0.000 HD
ATOM     20  H   UNL     1      53.664  68.883  37.744  0.00  0.00    +0.000 HD
ENDBRANCH  17  18
BRANCH  17  21
ATOM     21  C   UNL     1      51.652  70.530  38.192  0.00  0.00    +0.000 C 
BRANCH  21  25
ATOM     22  F   UNL     1      51.102  69.825  40.916  0.00  0.00    +0.000 F 
ATOM     23  F   UNL     1      48.313  74.039  38.879  0.00  0.00    +0.000 F 
ATOM     24  F   UNL     1      47.978  73.295  41.492  0.00  0.00    +0.000 F 
ATOM     25  C   UNL     1      50.620  71.223  39.062  0.00  0.00    +0.000 A 
ATOM     26  C   UNL     1      50.420  70.854  40.399  0.00  0.00    +0.000 A 
ATOM     27  C   UNL     1      49.883  72.306  38.555  0.00  0.00    +0.000 A 
ATOM     28  C   UNL     1      48.992  72.997  39.374  0.00  0.00    +0.000 A 
ATOM     29  C   UNL     1      49.529  71.542  41.222  0.00  0.00    +0.000 A 
ATOM     30  C   UNL     1      48.824  72.619  40.702  0.00  0.00    +0.000 A 
ENDBRANCH  21  25
ENDBRANCH  17  21
ENDBRANCH   1  17
TORSDOF 6
ENDMDL
MODEL 4
REMARK VINA RESULT:      -8.0     22.014     25.822
REMARK  Name = 9953181
REMARK  6 active torsions:
REMARK  status: ('A' for Active; 'I' for Inactive)
REMARK    1  A    between atoms: N_12  and  C_16
REMARK    2  A    between atoms: C_16  and  C_17
REMARK    3  A    between atoms: C_16  and  C_20
REMARK    4  A    between atoms: C_17  and  C_19
REMARK    5  A    between atoms: C_20  and  C_21
REMARK    6  A    between atoms: C_22  and  C_25
REMARK                            x       y       z     vdW  Elec       q    Type
REMARK                         _______ _______ _______ _____ _____    ______ ____
ROOT
ATOM      1  C   UNL     1      55.645  71.684  37.371  0.00  0.00    +0.000 C 
ENDROOT
BRANCH   1  11
ATOM      2  O   UNL     1      55.298  69.737  36.000  0.00  0.00    +0.000 OA
ATOM      3  N   UNL     1      53.650  70.203  37.527  0.00  0.00    +0.000 N 
ATOM      4  N   UNL     1      50.907  70.345  37.525  0.00  0.00    +0.000 N 
ATOM      5  N   UNL     1      50.730  71.976  38.955  0.00  0.00    +0.000 NA
ATOM      6  N   UNL     1      49.594  70.618  37.500  0.00  0.00    +0.000 NA
ATOM      7  C   UNL     1      52.893  68.989  37.182  0.00  0.00    +0.000 C 
ATOM      8  C   UNL     1      53.057  71.016  38.603  0.00  0.00    +0.000 C 
ATOM      9  C   UNL     1      51.505  69.350  36.660  0.00  0.00    +0.000 C 
ATOM     10  C   UNL     1      51.585  71.149  38.392  0.00  0.00    +0.000 A 
ATOM     11  C   UNL     1      54.863  70.469  36.888  0.00  0.00    +0.000 C 
ATOM     12  C   UNL     1      49.505  71.639  38.382  0.00  0.00    +0.000 A 
BRANCH  12  16
ATOM     13  F   UNL     1      47.752  72.085  39.961  0.00  0.00    +0.000 F 
ATOM     14  F   UNL     1      48.336  73.712  38.633  0.00  0.00    +0.000 F 
ATOM     15  F   UNL     1      47.200  72.017  37.854  0.00  0.00    +0.000 F 
ATOM     16  C   UNL     1      48.207  72.357  38.706  0.00  0.00    +0.000 C 
ENDBRANCH  12  16
ENDBRANCH   1  11
BRANCH   1  17
ATOM     17  C   UNL     1      57.186  71.573  37.350  0.00  0.00    +0.000 C 
BRANCH  17  18
ATOM     18  N   UNL     1      57.549  71.087  36.000  0.00  0.00    +0.000 NA
ATOM     19  H   UNL     1      58.171  71.758  35.548  0.00  0.00    +0.000 HD
ATOM     20  H   UNL     1      58.086  70.224  36.078  0.00  0.00    +0.000 HD
ENDBRANCH  17  18
BRANCH  17  21
ATOM     21  C   UNL     1      57.696  70.582  38.428  0.00  0.00    +0.000 C 
BRANCH  21  25
ATOM     22  F   UNL     1      55.701  70.089  40.427  0.00  0.00    +0.000 F 
ATOM     23  F   UNL     1      60.086  72.912  42.004  0.00  0.00    +0.000 F 
ATOM     24  F   UNL     1      58.132  72.272  43.812  0.00  0.00    +0.000 F 
ATOM     25  C   UNL     1      57.774  71.089  39.856  0.00  0.00    +0.000 A 
ATOM     26  C   UNL     1      56.781  70.787  40.798  0.00  0.00    +0.000 A 
ATOM     27  C   UNL     1      58.891  71.828  40.282  0.00  0.00    +0.000 A 
ATOM     28  C   UNL     1      59.005  72.227  41.612  0.00  0.00    +0.000 A 
ATOM     29  C   UNL     1      56.892  71.186  42.130  0.00  0.00    +0.000 A 
ATOM     30  C   UNL     1      58.012  71.900  42.530  0.00  0.00    +0.000 A 
ENDBRANCH  21  25
ENDBRANCH  17  21
ENDBRANCH   1  17
TORSDOF 6
ENDMDL
MODEL 5
REMARK VINA RESULT:      -7.9      5.120     12.287
REMARK  Name = 9953181
REMARK  6 active torsions:
REMARK  status: ('A' for Active; 'I' for Inactive)
REMARK    1  A    between atoms: N_12  and  C_16
REMARK    2  A    between atoms: C_16  and  C_17
REMARK    3  A    between atoms: C_16  and  C_20
REMARK    4  A    between atoms: C_17  and  C_19
REMARK    5  A    between atoms: C_20  and  C_21
REMARK    6  A    between atoms: C_22  and  C_25
REMARK                            x       y       z     vdW  Elec       q    Type
REMARK                         _______ _______ _______ _____ _____    ______ ____
ROOT
ATOM      1  C   UNL     1      49.443  50.755  35.142  0.00  0.00    +0.000 C 
ENDROOT
BRANCH   1  11
ATOM      2  O   UNL     1      49.576  50.027  37.431  0.00  0.00    +0.000 OA
ATOM      3  N   UNL     1      47.671  51.162  36.842  0.00  0.00    +0.000 N 
ATOM      4  N   UNL     1      44.965  50.841  37.195  0.00  0.00    +0.000 N 
ATOM      5  N   UNL     1      44.354  51.671  35.277  0.00  0.00    +0.000 NA
ATOM      6  N   UNL     1      43.646  50.602  37.177  0.00  0.00    +0.000 NA
ATOM      7  C   UNL     1      47.149  51.136  38.218  0.00  0.00    +0.000 C 
ATOM      8  C   UNL     1      46.817  51.868  35.871  0.00  0.00    +0.000 C 
ATOM      9  C   UNL     1      45.818  50.392  38.275  0.00  0.00    +0.000 C 
ATOM     10  C   UNL     1      45.389  51.480  36.067  0.00  0.00    +0.000 A 
ATOM     11  C   UNL     1      48.916  50.596  36.563  0.00  0.00    +0.000 C 
ATOM     12  C   UNL     1      43.286  51.111  35.977  0.00  0.00    +0.000 A 
BRANCH  12  16
ATOM     13  F   UNL     1      40.953  50.719  36.386  0.00  0.00    +0.000 F 
ATOM     14  F   UNL     1      41.466  52.270  34.943  0.00  0.00    +0.000 F 
ATOM     15  F   UNL     1      41.728  50.163  34.426  0.00  0.00    +0.000 F 
ATOM     16  C   UNL     1      41.868  51.065  35.438  0.00  0.00    +0.000 C 
ENDBRANCH  12  16
ENDBRANCH   1  11
BRANCH   1  17
ATOM     17  C   UNL     1      50.669  51.675  34.951  0.00  0.00    +0.000 C 
BRANCH  17  18
ATOM     18  N   UNL     1      50.138  52.989  34.522  0.00  0.00    +0.000 NA
ATOM     19  H   UNL     1      49.377  52.853  33.856  0.00  0.00    +0.000 HD
ATOM     20  H   UNL     1      49.723  53.470  35.320  0.00  0.00    +0.000 HD
ENDBRANCH  17  18
BRANCH  17  21
ATOM     21  C   UNL     1      51.635  51.114  33.875  0.00  0.00    +0.000 C 
BRANCH  21  25
ATOM     22  F   UNL     1      51.172  48.295  33.630  0.00  0.00    +0.000 F 
ATOM     23  F   UNL     1      55.988  49.805  35.683  0.00  0.00    +0.000 F 
ATOM     24  F   UNL     1      55.422  47.155  35.293  0.00  0.00    +0.000 F 
ATOM     25  C   UNL     1      52.618  50.045  34.316  0.00  0.00    +0.000 A 
ATOM     26  C   UNL     1      52.348  48.682  34.139  0.00  0.00    +0.000 A 
ATOM     27  C   UNL     1      53.862  50.412  34.856  0.00  0.00    +0.000 A 
ATOM     28  C   UNL     1      54.800  49.437  35.188  0.00  0.00    +0.000 A 
ATOM     29  C   UNL     1      53.284  47.702  34.471  0.00  0.00    +0.000 A 
ATOM     30  C   UNL     1      54.512  48.090  34.988  0.00  0.00    +0.000 A 
ENDBRANCH  21  25
ENDBRANCH  17  21
ENDBRANCH   1  17
TORSDOF 6
ENDMDL
MODEL 6
REMARK VINA RESULT:      -7.8     10.626     11.716
REMARK  Name = 9953181
REMARK  6 active torsions:
REMARK  status: ('A' for Active; 'I' for Inactive)
REMARK    1  A    between atoms: N_12  and  C_16
REMARK    2  A    between atoms: C_16  and  C_17
REMARK    3  A    between atoms: C_16  and  C_20
REMARK    4  A    between atoms: C_17  and  C_19
REMARK    5  A    between atoms: C_20  and  C_21
REMARK    6  A    between atoms: C_22  and  C_25
REMARK                            x       y       z     vdW  Elec       q    Type
REMARK                         _______ _______ _______ _____ _____    ______ ____
ROOT
ATOM      1  C   UNL     1      34.307  54.308  45.739  0.00  0.00    +0.000 C 
ENDROOT
BRANCH   1  11
ATOM      2  O   UNL     1      35.846  55.775  46.866  0.00  0.00    +0.000 OA
ATOM      3  N   UNL     1      35.988  55.729  44.576  0.00  0.00    +0.000 N 
ATOM      4  N   UNL     1      36.156  57.574  42.548  0.00  0.00    +0.000 N 
ATOM      5  N   UNL     1      34.992  56.458  41.085  0.00  0.00    +0.000 NA
ATOM      6  N   UNL     1      36.033  58.449  41.539  0.00  0.00    +0.000 NA
ATOM      7  C   UNL     1      37.143  56.641  44.562  0.00  0.00    +0.000 C 
ATOM      8  C   UNL     1      35.561  55.253  43.249  0.00  0.00    +0.000 C 
ATOM      9  C   UNL     1      36.813  57.916  43.791  0.00  0.00    +0.000 C 
ATOM     10  C   UNL     1      35.541  56.388  42.279  0.00  0.00    +0.000 A 
ATOM     11  C   UNL     1      35.429  55.338  45.794  0.00  0.00    +0.000 C 
ATOM     12  C   UNL     1      35.299  57.746  40.647  0.00  0.00    +0.000 A 
BRANCH  12  16
ATOM     13  F   UNL     1      33.569  58.789  39.350  0.00  0.00    +0.000 F 
ATOM     14  F   UNL     1      35.628  59.331  38.885  0.00  0.00    +0.000 F 
ATOM     15  F   UNL     1      34.859  57.364  38.325  0.00  0.00    +0.000 F 
ATOM     16  C   UNL     1      34.841  58.303  39.312  0.00  0.00    +0.000 C 
ENDBRANCH  12  16
ENDBRANCH   1  11
BRANCH   1  17
ATOM     17  C   UNL     1      34.398  53.124  46.727  0.00  0.00    +0.000 C 
BRANCH  17  18
ATOM     18  N   UNL     1      34.331  53.710  48.085  0.00  0.00    +0.000 NA
ATOM     19  H   UNL     1      35.170  54.263  48.263  0.00  0.00    +0.000 HD
ATOM     20  H   UNL     1      33.552  54.367  48.138  0.00  0.00    +0.000 HD
ENDBRANCH  17  18
BRANCH  17  21
ATOM     21  C   UNL     1      35.726  52.342  46.550  0.00  0.00    +0.000 C 
BRANCH  21  25
ATOM     22  F   UNL     1      36.545  51.047  44.127  0.00  0.00    +0.000 F 
ATOM     23  F   UNL     1      34.650  47.825  48.092  0.00  0.00    +0.000 F 
ATOM     24  F   UNL     1      35.564  46.741  45.750  0.00  0.00    +0.000 F 
ATOM     25  C   UNL     1      35.623  50.849  46.303  0.00  0.00    +0.000 A 
ATOM     26  C   UNL     1      36.071  50.269  45.108  0.00  0.00    +0.000 A 
ATOM     27  C   UNL     1      35.128  49.999  47.308  0.00  0.00    +0.000 A 
ATOM     28  C   UNL     1      35.106  48.620  47.116  0.00  0.00    +0.000 A 
ATOM     29  C   UNL     1      36.050  48.888  44.912  0.00  0.00    +0.000 A 
ATOM     30  C   UNL     1      35.572  48.070  45.926  0.00  0.00    +0.000 A 
ENDBRANCH  21  25
ENDBRANCH  17  21
ENDBRANCH   1  17
TORSDOF 6
ENDMDL
MODEL 7
REMARK VINA RESULT:      -7.5      2.220      9.686
REMARK  Name = 9953181
REMARK  6 active torsions:
REMARK  status: ('A' for Active; 'I' for Inactive)
REMARK    1  A    between atoms: N_12  and  C_16
REMARK    2  A    between atoms: C_16  and  C_17
REMARK    3  A    between atoms: C_16  and  C_20
REMARK    4  A    between atoms: C_17  and  C_19
REMARK    5  A    between atoms: C_20  and  C_21
REMARK    6  A    between atoms: C_22  and  C_25
REMARK                            x       y       z     vdW  Elec       q    Type
REMARK                         _______ _______ _______ _____ _____    ______ ____
ROOT
ATOM      1  C   UNL     1      42.749  51.141  38.805  0.00  0.00    +0.000 C 
ENDROOT
BRANCH   1  11
ATOM      2  O   UNL     1      42.786  52.970  37.242  0.00  0.00    +0.000 OA
ATOM      3  N   UNL     1      41.506  51.160  36.648  0.00  0.00    +0.000 N 
ATOM      4  N   UNL     1      38.977  50.739  35.661  0.00  0.00    +0.000 N 
ATOM      5  N   UNL     1      38.593  48.876  36.719  0.00  0.00    +0.000 NA
ATOM      6  N   UNL     1      37.689  50.499  35.377  0.00  0.00    +0.000 NA
ATOM      7  C   UNL     1      41.166  51.745  35.341  0.00  0.00    +0.000 C 
ATOM      8  C   UNL     1      40.947  49.819  36.889  0.00  0.00    +0.000 C 
ATOM      9  C   UNL     1      39.657  51.937  35.214  0.00  0.00    +0.000 C 
ATOM     10  C   UNL     1      39.518  49.774  36.457  0.00  0.00    +0.000 A 
ATOM     11  C   UNL     1      42.352  51.852  37.517  0.00  0.00    +0.000 C 
ATOM     12  C   UNL     1      37.464  49.348  36.050  0.00  0.00    +0.000 A 
BRANCH  12  16
ATOM     13  F   UNL     1      35.117  49.451  36.547  0.00  0.00    +0.000 F 
ATOM     14  F   UNL     1      35.726  48.216  34.857  0.00  0.00    +0.000 F 
ATOM     15  F   UNL     1      36.128  47.552  36.899  0.00  0.00    +0.000 F 
ATOM     16  C   UNL     1      36.118  48.648  36.089  0.00  0.00    +0.000 C 
ENDBRANCH  12  16
ENDBRANCH   1  11
BRANCH   1  17
ATOM     17  C   UNL     1      43.795  50.010  38.682  0.00  0.00    +0.000 C 
BRANCH  17  18
ATOM     18  N   UNL     1      43.341  48.925  39.581  0.00  0.00    +0.000 NA
ATOM     19  H   UNL     1      42.412  49.144  39.943  0.00  0.00    +0.000 HD
ATOM     20  H   UNL     1      43.232  48.061  39.051  0.00  0.00    +0.000 HD
ENDBRANCH  17  18
BRANCH  17  21
ATOM     21  C   UNL     1      45.205  50.497  39.106  0.00  0.00    +0.000 C 
BRANCH  21  25
ATOM     22  F   UNL     1      48.017  49.978  39.315  0.00  0.00    +0.000 F 
ATOM     23  F   UNL     1      46.243  51.906  34.537  0.00  0.00    +0.000 F 
ATOM     24  F   UNL     1      48.884  51.266  34.874  0.00  0.00    +0.000 F 
ATOM     25  C   UNL     1      46.208  50.764  37.999  0.00  0.00    +0.000 A 
ATOM     26  C   UNL     1      47.567  50.458  38.149  0.00  0.00    +0.000 A 
ATOM     27  C   UNL     1      45.774  51.270  36.761  0.00  0.00    +0.000 A 
ATOM     28  C   UNL     1      46.678  51.441  35.715  0.00  0.00    +0.000 A 
ATOM     29  C   UNL     1      48.475  50.630  37.105  0.00  0.00    +0.000 A 
ATOM     30  C   UNL     1      48.019  51.115  35.887  0.00  0.00    +0.000 A 
ENDBRANCH  21  25
ENDBRANCH  17  21
ENDBRANCH   1  17
TORSDOF 6
ENDMDL
MODEL 8
REMARK VINA RESULT:      -7.4     22.882     25.468
REMARK  Name = 9953181
REMARK  6 active torsions:
REMARK  status: ('A' for Active; 'I' for Inactive)
REMARK    1  A    between atoms: N_12  and  C_16
REMARK    2  A    between atoms: C_16  and  C_17
REMARK    3  A    between atoms: C_16  and  C_20
REMARK    4  A    between atoms: C_17  and  C_19
REMARK    5  A    between atoms: C_20  and  C_21
REMARK    6  A    between atoms: C_22  and  C_25
REMARK                            x       y       z     vdW  Elec       q    Type
REMARK                         _______ _______ _______ _____ _____    ______ ____
ROOT
ATOM      1  C   UNL     1      54.991  70.189  41.131  0.00  0.00    +0.000 C 
ENDROOT
BRANCH   1  11
ATOM      2  O   UNL     1      56.037  71.061  39.147  0.00  0.00    +0.000 OA
ATOM      3  N   UNL     1      53.794  70.603  38.988  0.00  0.00    +0.000 N 
ATOM      4  N   UNL     1      51.558  71.878  38.027  0.00  0.00    +0.000 N 
ATOM      5  N   UNL     1      50.166  71.117  39.517  0.00  0.00    +0.000 NA
ATOM      6  N   UNL     1      50.435  72.557  37.755  0.00  0.00    +0.000 NA
ATOM      7  C   UNL     1      53.756  70.952  37.559  0.00  0.00    +0.000 C 
ATOM      8  C   UNL     1      52.512  70.140  39.546  0.00  0.00    +0.000 C 
ATOM      9  C   UNL     1      52.796  72.114  37.314  0.00  0.00    +0.000 C 
ATOM     10  C   UNL     1      51.400  71.018  39.073  0.00  0.00    +0.000 A 
ATOM     11  C   UNL     1      55.002  70.668  39.685  0.00  0.00    +0.000 C 
ATOM     12  C   UNL     1      49.587  72.083  38.695  0.00  0.00    +0.000 A 
BRANCH  12  16
ATOM     13  F   UNL     1      47.476  71.889  39.823  0.00  0.00    +0.000 F 
ATOM     14  F   UNL     1      48.087  73.882  39.185  0.00  0.00    +0.000 F 
ATOM     15  F   UNL     1      47.430  72.412  37.708  0.00  0.00    +0.000 F 
ATOM     16  C   UNL     1      48.155  72.562  38.852  0.00  0.00    +0.000 C 
ENDBRANCH  12  16
ENDBRANCH   1  11
BRANCH   1  17
ATOM     17  C   UNL     1      55.236  71.256  42.221  0.00  0.00    +0.000 C 
BRANCH  17  18
ATOM     18  N   UNL     1      55.312  72.557  41.518  0.00  0.00    +0.000 NA
ATOM     19  H   UNL     1      55.939  73.185  42.021  0.00  0.00    +0.000 HD
ATOM     20  H   UNL     1      55.734  72.427  40.598  0.00  0.00    +0.000 HD
ENDBRANCH  17  18
BRANCH  17  21
ATOM     21  C   UNL     1      56.556  70.988  42.988  0.00  0.00    +0.000 C 
BRANCH  21  25
ATOM     22  F   UNL     1      56.302  68.215  43.673  0.00  0.00    +0.000 F 
ATOM     23  F   UNL     1      60.213  69.496  40.101  0.00  0.00    +0.000 F 
ATOM     24  F   UNL     1      59.772  66.883  40.789  0.00  0.00    +0.000 F 
ATOM     25  C   UNL     1      57.458  69.890  42.455  0.00  0.00    +0.000 A 
ATOM     26  C   UNL     1      57.262  68.546  42.801  0.00  0.00    +0.000 A 
ATOM     27  C   UNL     1      58.479  70.199  41.540  0.00  0.00    +0.000 A 
ATOM     28  C   UNL     1      59.258  69.185  40.986  0.00  0.00    +0.000 A 
ATOM     29  C   UNL     1      58.041  67.529  42.249  0.00  0.00    +0.000 A 
ATOM     30  C   UNL     1      59.032  67.857  41.335  0.00  0.00    +0.000 A 
ENDBRANCH  21  25
ENDBRANCH  17  21
ENDBRANCH   1  17
TORSDOF 6
ENDMDL
MODEL 9
REMARK VINA RESULT:      -7.4      3.054      4.373
REMARK  Name = 9953181
REMARK  6 active torsions:
REMARK  status: ('A' for Active; 'I' for Inactive)
REMARK    1  A    between atoms: N_12  and  C_16
REMARK    2  A    between atoms: C_16  and  C_17
REMARK    3  A    between atoms: C_16  and  C_20
REMARK    4  A    between atoms: C_17  and  C_19
REMARK    5  A    between atoms: C_20  and  C_21
REMARK    6  A    between atoms: C_22  and  C_25
REMARK                            x       y       z     vdW  Elec       q    Type
REMARK                         _______ _______ _______ _____ _____    ______ ____
ROOT
ATOM      1  C   UNL     1      43.175  51.625  35.710  0.00  0.00    +0.000 C 
ENDROOT
BRANCH   1  11
ATOM      2  O   UNL     1      44.111  52.719  33.783  0.00  0.00    +0.000 OA
ATOM      3  N   UNL     1      45.569  52.272  35.497  0.00  0.00    +0.000 N 
ATOM      4  N   UNL     1      48.082  51.192  35.751  0.00  0.00    +0.000 N 
ATOM      5  N   UNL     1      47.750  50.210  37.666  0.00  0.00    +0.000 NA
ATOM      6  N   UNL     1      49.211  50.488  35.922  0.00  0.00    +0.000 NA
ATOM      7  C   UNL     1      46.686  52.945  34.813  0.00  0.00    +0.000 C 
ATOM      8  C   UNL     1      45.896  51.733  36.828  0.00  0.00    +0.000 C 
ATOM      9  C   UNL     1      47.827  51.965  34.554  0.00  0.00    +0.000 C 
ATOM     10  C   UNL     1      47.213  51.031  36.789  0.00  0.00    +0.000 A 
ATOM     11  C   UNL     1      44.308  52.241  34.899  0.00  0.00    +0.000 C 
ATOM     12  C   UNL     1      48.983  49.876  37.106  0.00  0.00    +0.000 A 
BRANCH  12  16
ATOM     13  F   UNL     1      49.364  47.761  38.175  0.00  0.00    +0.000 F 
ATOM     14  F   UNL     1      50.955  48.537  36.903  0.00  0.00    +0.000 F 
ATOM     15  F   UNL     1      50.566  49.449  38.850  0.00  0.00    +0.000 F 
ATOM     16  C   UNL     1      49.959  48.912  37.754  0.00  0.00    +0.000 C 
ENDBRANCH  12  16
ENDBRANCH   1  11
BRANCH   1  17
ATOM     17  C   UNL     1      41.841  51.382  34.971  0.00  0.00    +0.000 C 
BRANCH  17  18
ATOM     18  N   UNL     1      41.098  52.661  35.025  0.00  0.00    +0.000 NA
ATOM     19  H   UNL     1      41.391  53.262  34.254  0.00  0.00    +0.000 HD
ATOM     20  H   UNL     1      40.104  52.489  34.876  0.00  0.00    +0.000 HD
ENDBRANCH  17  18
BRANCH  17  21
ATOM     21  C   UNL     1      41.015  50.258  35.650  0.00  0.00    +0.000 C 
BRANCH  21  25
ATOM     22  F   UNL     1      38.396  50.543  34.519  0.00  0.00    +0.000 F 
ATOM     23  F   UNL     1      38.851  51.443  39.874  0.00  0.00    +0.000 F 
ATOM     24  F   UNL     1      36.404  51.578  38.653  0.00  0.00    +0.000 F 
ATOM     25  C   UNL     1      39.787  50.677  36.435  0.00  0.00    +0.000 A 
ATOM     26  C   UNL     1      38.525  50.767  35.832  0.00  0.00    +0.000 A 
ATOM     27  C   UNL     1      39.882  50.924  37.816  0.00  0.00    +0.000 A 
ATOM     28  C   UNL     1      38.743  51.231  38.556  0.00  0.00    +0.000 A 
ATOM     29  C   UNL     1      37.382  51.075  36.571  0.00  0.00    +0.000 A 
ATOM     30  C   UNL     1      37.500  51.298  37.935  0.00  0.00    +0.000 A 
ENDBRANCH  21  25
ENDBRANCH  17  21
ENDBRANCH   1  17
TORSDOF 6
ENDMDL
