MODEL 1
REMARK VINA RESULT:      -8.3      0.000      0.000
REMARK  Name = 10095827
REMARK  8 active torsions:
REMARK  status: ('A' for Active; 'I' for Inactive)
REMARK    1  A    between atoms: N_12  and  C_24
REMARK    2  A    between atoms: C_13  and  C_16
REMARK    3  A    between atoms: C_16  and  C_17
REMARK    4  A    between atoms: C_21  and  C_22
REMARK    5  A    between atoms: C_22  and  C_24
REMARK    6  A    between atoms: C_23  and  C_26
REMARK    7  A    between atoms: C_24  and  C_25
REMARK    8  A    between atoms: C_25  and  C_27
REMARK                            x       y       z     vdW  Elec       q    Type
REMARK                         _______ _______ _______ _____ _____    ______ ____
ROOT
ATOM      1  O   UNL     1      40.481  53.857  37.804  0.00  0.00    +0.000 OA
ATOM      2  N   UNL     1      40.495  51.581  38.114  0.00  0.00    +0.000 N 
ATOM      3  N   UNL     1      38.812  49.799  36.904  0.00  0.00    +0.000 N 
ATOM      4  N   UNL     1      36.942  50.541  37.736  0.00  0.00    +0.000 NA
ATOM      5  N   UNL     1      37.895  49.076  36.251  0.00  0.00    +0.000 NA
ATOM      6  C   UNL     1      39.102  51.596  38.648  0.00  0.00    +0.000 C 
ATOM      7  C   UNL     1      38.252  50.679  37.790  0.00  0.00    +0.000 A 
ATOM      8  C   UNL     1      41.028  50.254  37.764  0.00  0.00    +0.000 C 
ATOM      9  C   UNL     1      40.222  49.668  36.616  0.00  0.00    +0.000 C 
ATOM     10  C   UNL     1      41.075  52.787  37.709  0.00  0.00    +0.000 C 
ATOM     11  C   UNL     1      36.742  49.556  36.765  0.00  0.00    +0.000 A 
ENDROOT
BRANCH  11  15
ATOM     12  F   UNL     1      34.463  50.076  36.208  0.00  0.00    +0.000 F 
ATOM     13  F   UNL     1      34.843  48.162  37.177  0.00  0.00    +0.000 F 
ATOM     14  F   UNL     1      35.422  48.468  35.094  0.00  0.00    +0.000 F 
ATOM     15  C   UNL     1      35.376  49.075  36.315  0.00  0.00    +0.000 C 
ENDBRANCH  11  15
BRANCH   6  16
ATOM     16  C   UNL     1      39.042  51.149  40.131  0.00  0.00    +0.000 C 
BRANCH  16  17
ATOM     17  C   UNL     1      38.293  52.095  41.039  0.00  0.00    +0.000 C 
ATOM     18  C   UNL     1      37.157  51.545  41.867  0.00  0.00    +0.000 C 
ATOM     19  C   UNL     1      36.871  52.512  40.757  0.00  0.00    +0.000 C 
ENDBRANCH  16  17
ENDBRANCH   6  16
BRANCH  10  20
ATOM     20  C   UNL     1      42.496  52.707  37.164  0.00  0.00    +0.000 C 
BRANCH  20  21
ATOM     21  C   UNL     1      42.626  52.766  35.633  0.00  0.00    +0.000 C 
BRANCH  21  22
ATOM     22  N   UNL     1      41.252  52.841  35.080  0.00  0.00    +0.000 NA
ATOM     23  H   UNL     1      41.251  53.462  34.270  0.00  0.00    +0.000 HD
ATOM     24  H   UNL     1      40.630  53.281  35.755  0.00  0.00    +0.000 HD
ENDBRANCH  21  22
BRANCH  21  25
ATOM     25  C   UNL     1      43.370  51.547  35.026  0.00  0.00    +0.000 C 
BRANCH  25  29
ATOM     26  F   UNL     1      44.995  50.572  37.163  0.00  0.00    +0.000 F 
ATOM     27  F   UNL     1      47.597  53.076  33.088  0.00  0.00    +0.000 F 
ATOM     28  F   UNL     1      48.987  52.166  35.263  0.00  0.00    +0.000 F 
ATOM     29  C   UNL     1      44.882  51.673  35.062  0.00  0.00    +0.000 A 
ATOM     30  C   UNL     1      45.621  51.188  36.151  0.00  0.00    +0.000 A 
ATOM     31  C   UNL     1      45.570  52.303  34.015  0.00  0.00    +0.000 A 
ATOM     32  C   UNL     1      46.954  52.460  34.086  0.00  0.00    +0.000 A 
ATOM     33  C   UNL     1      47.000  51.350  36.228  0.00  0.00    +0.000 A 
ATOM     34  C   UNL     1      47.660  51.991  35.189  0.00  0.00    +0.000 A 
ENDBRANCH  25  29
ENDBRANCH  21  25
ENDBRANCH  20  21
ENDBRANCH  10  20
TORSDOF 8
ENDMDL
MODEL 2
REMARK VINA RESULT:      -7.8      8.225     11.843
REMARK  Name = 10095827
REMARK  8 active torsions:
REMARK  status: ('A' for Active; 'I' for Inactive)
REMARK    1  A    between atoms: N_12  and  C_24
REMARK    2  A    between atoms: C_13  and  C_16
REMARK    3  A    between atoms: C_16  and  C_17
REMARK    4  A    between atoms: C_21  and  C_22
REMARK    5  A    between atoms: C_22  and  C_24
REMARK    6  A    between atoms: C_23  and  C_26
REMARK    7  A    between atoms: C_24  and  C_25
REMARK    8  A    between atoms: C_25  and  C_27
REMARK                            x       y       z     vdW  Elec       q    Type
REMARK                         _______ _______ _______ _____ _____    ______ ____
ROOT
ATOM      1  O   UNL     1      34.547  52.528  44.727  0.00  0.00    +0.000 OA
ATOM      2  N   UNL     1      36.161  54.152  44.545  0.00  0.00    +0.000 N 
ATOM      3  N   UNL     1      35.987  56.407  43.010  0.00  0.00    +0.000 N 
ATOM      4  N   UNL     1      35.843  55.436  41.066  0.00  0.00    +0.000 NA
ATOM      5  N   UNL     1      35.747  57.435  42.187  0.00  0.00    +0.000 NA
ATOM      6  C   UNL     1      36.312  53.908  43.080  0.00  0.00    +0.000 C 
ATOM      7  C   UNL     1      36.042  55.209  42.350  0.00  0.00    +0.000 A 
ATOM      8  C   UNL     1      36.787  55.384  45.052  0.00  0.00    +0.000 C 
ATOM      9  C   UNL     1      36.101  56.594  44.438  0.00  0.00    +0.000 C 
ATOM     10  C   UNL     1      35.227  53.399  45.262  0.00  0.00    +0.000 C 
ATOM     11  C   UNL     1      35.645  56.817  40.990  0.00  0.00    +0.000 A 
ENDROOT
BRANCH  11  15
ATOM     12  F   UNL     1      35.219  56.739  38.627  0.00  0.00    +0.000 F 
ATOM     13  F   UNL     1      36.301  58.469  39.391  0.00  0.00    +0.000 F 
ATOM     14  F   UNL     1      34.164  58.254  39.783  0.00  0.00    +0.000 F 
ATOM     15  C   UNL     1      35.334  57.558  39.705  0.00  0.00    +0.000 C 
ENDBRANCH  11  15
BRANCH   6  16
ATOM     16  C   UNL     1      37.721  53.375  42.721  0.00  0.00    +0.000 C 
BRANCH  16  17
ATOM     17  C   UNL     1      37.920  51.902  42.989  0.00  0.00    +0.000 C 
ATOM     18  C   UNL     1      38.157  50.984  41.814  0.00  0.00    +0.000 C 
ATOM     19  C   UNL     1      36.885  50.875  42.601  0.00  0.00    +0.000 C 
ENDBRANCH  16  17
ENDBRANCH   6  16
BRANCH  10  20
ATOM     20  C   UNL     1      35.113  53.700  46.752  0.00  0.00    +0.000 C 
BRANCH  20  21
ATOM     21  C   UNL     1      34.771  52.498  47.649  0.00  0.00    +0.000 C 
BRANCH  21  22
ATOM     22  N   UNL     1      34.260  53.040  48.931  0.00  0.00    +0.000 NA
ATOM     23  H   UNL     1      34.170  54.053  48.853  0.00  0.00    +0.000 HD
ATOM     24  H   UNL     1      34.944  52.888  49.670  0.00  0.00    +0.000 HD
ENDBRANCH  21  22
BRANCH  21  25
ATOM     25  C   UNL     1      35.979  51.562  47.920  0.00  0.00    +0.000 C 
BRANCH  25  29
ATOM     26  F   UNL     1      37.677  50.632  45.819  0.00  0.00    +0.000 F 
ATOM     27  F   UNL     1      33.746  47.232  47.442  0.00  0.00    +0.000 F 
ATOM     28  F   UNL     1      35.403  46.543  45.376  0.00  0.00    +0.000 F 
ATOM     29  C   UNL     1      35.850  50.195  47.272  0.00  0.00    +0.000 A 
ATOM     30  C   UNL     1      36.707  49.805  46.232  0.00  0.00    +0.000 A 
ATOM     31  C   UNL     1      34.853  49.301  47.687  0.00  0.00    +0.000 A 
ATOM     32  C   UNL     1      34.712  48.070  47.048  0.00  0.00    +0.000 A 
ATOM     33  C   UNL     1      36.563  48.581  45.588  0.00  0.00    +0.000 A 
ATOM     34  C   UNL     1      35.558  47.718  46.001  0.00  0.00    +0.000 A 
ENDBRANCH  25  29
ENDBRANCH  21  25
ENDBRANCH  20  21
ENDBRANCH  10  20
TORSDOF 8
ENDMDL
MODEL 3
REMARK VINA RESULT:      -7.7      6.916     12.901
REMARK  Name = 10095827
REMARK  8 active torsions:
REMARK  status: ('A' for Active; 'I' for Inactive)
REMARK    1  A    between atoms: N_12  and  C_24
REMARK    2  A    between atoms: C_13  and  C_16
REMARK    3  A    between atoms: C_16  and  C_17
REMARK    4  A    between atoms: C_21  and  C_22
REMARK    5  A    between atoms: C_22  and  C_24
REMARK    6  A    between atoms: C_23  and  C_26
REMARK    7  A    between atoms: C_24  and  C_25
REMARK    8  A    between atoms: C_25  and  C_27
REMARK                            x       y       z     vdW  Elec       q    Type
REMARK                         _______ _______ _______ _____ _____    ______ ____
ROOT
ATOM      1  O   UNL     1      51.686  50.912  33.660  0.00  0.00    +0.000 OA
ATOM      2  N   UNL     1      51.364  49.740  35.609  0.00  0.00    +0.000 N 
ATOM      3  N   UNL     1      52.102  50.570  38.106  0.00  0.00    +0.000 N 
ATOM      4  N   UNL     1      54.251  50.662  37.769  0.00  0.00    +0.000 NA
ATOM      5  N   UNL     1      52.553  51.115  39.243  0.00  0.00    +0.000 NA
ATOM      6  C   UNL     1      52.833  49.671  35.868  0.00  0.00    +0.000 C 
ATOM      7  C   UNL     1      53.108  50.300  37.219  0.00  0.00    +0.000 A 
ATOM      8  C   UNL     1      50.501  49.372  36.743  0.00  0.00    +0.000 C 
ATOM      9  C   UNL     1      50.690  50.373  37.872  0.00  0.00    +0.000 C 
ATOM     10  C   UNL     1      50.911  50.405  34.466  0.00  0.00    +0.000 C 
ATOM     11  C   UNL     1      53.882  51.180  39.013  0.00  0.00    +0.000 A 
ENDROOT
BRANCH  11  15
ATOM     12  F   UNL     1      54.363  52.838  40.685  0.00  0.00    +0.000 F 
ATOM     13  F   UNL     1      56.009  52.201  39.408  0.00  0.00    +0.000 F 
ATOM     14  F   UNL     1      55.242  50.863  40.954  0.00  0.00    +0.000 F 
ATOM     15  C   UNL     1      54.862  51.770  40.009  0.00  0.00    +0.000 C 
ENDBRANCH  11  15
BRANCH   6  16
ATOM     16  C   UNL     1      53.362  48.215  35.836  0.00  0.00    +0.000 C 
BRANCH  16  17
ATOM     17  C   UNL     1      54.123  47.854  34.583  0.00  0.00    +0.000 C 
ATOM     18  C   UNL     1      53.362  47.236  33.434  0.00  0.00    +0.000 C 
ATOM     19  C   UNL     1      54.369  46.419  34.186  0.00  0.00    +0.000 C 
ENDBRANCH  16  17
ENDBRANCH   6  16
BRANCH  10  20
ATOM     20  C   UNL     1      49.402  50.449  34.261  0.00  0.00    +0.000 C 
BRANCH  20  21
ATOM     21  C   UNL     1      48.733  51.809  34.525  0.00  0.00    +0.000 C 
BRANCH  21  22
ATOM     22  N   UNL     1      49.790  52.844  34.419  0.00  0.00    +0.000 NA
ATOM     23  H   UNL     1      50.338  52.850  35.279  0.00  0.00    +0.000 HD
ATOM     24  H   UNL     1      49.367  53.768  34.364  0.00  0.00    +0.000 HD
ENDBRANCH  21  22
BRANCH  21  25
ATOM     25  C   UNL     1      48.044  51.903  35.912  0.00  0.00    +0.000 C 
BRANCH  25  29
ATOM     26  F   UNL     1      46.520  50.674  37.992  0.00  0.00    +0.000 F 
ATOM     27  F   UNL     1      43.745  52.342  33.615  0.00  0.00    +0.000 F 
ATOM     28  F   UNL     1      42.458  51.057  35.660  0.00  0.00    +0.000 F 
ATOM     29  C   UNL     1      46.538  51.721  35.861  0.00  0.00    +0.000 A 
ATOM     30  C   UNL     1      45.850  51.092  36.909  0.00  0.00    +0.000 A 
ATOM     31  C   UNL     1      45.805  52.157  34.747  0.00  0.00    +0.000 A 
ATOM     32  C   UNL     1      44.430  51.935  34.689  0.00  0.00    +0.000 A 
ATOM     33  C   UNL     1      44.480  50.864  36.851  0.00  0.00    +0.000 A 
ATOM     34  C   UNL     1      43.776  51.287  35.732  0.00  0.00    +0.000 A 
ENDBRANCH  25  29
ENDBRANCH  21  25
ENDBRANCH  20  21
ENDBRANCH  10  20
TORSDOF 8
ENDMDL
MODEL 4
REMARK VINA RESULT:      -7.6     23.185     25.516
REMARK  Name = 10095827
REMARK  8 active torsions:
REMARK  status: ('A' for Active; 'I' for Inactive)
REMARK    1  A    between atoms: N_12  and  C_24
REMARK    2  A    between atoms: C_13  and  C_16
REMARK    3  A    between atoms: C_16  and  C_17
REMARK    4  A    between atoms: C_21  and  C_22
REMARK    5  A    between atoms: C_22  and  C_24
REMARK    6  A    between atoms: C_23  and  C_26
REMARK    7  A    between atoms: C_24  and  C_25
REMARK    8  A    between atoms: C_25  and  C_27
REMARK                            x       y       z     vdW  Elec       q    Type
REMARK                         _______ _______ _______ _____ _____    ______ ____
ROOT
ATOM      1  O   UNL     1      57.680  67.361  37.877  0.00  0.00    +0.000 OA
ATOM      2  N   UNL     1      57.492  69.471  36.987  0.00  0.00    +0.000 N 
ATOM      3  N   UNL     1      55.473  71.241  37.496  0.00  0.00    +0.000 N 
ATOM      4  N   UNL     1      53.830  70.062  36.687  0.00  0.00    +0.000 NA
ATOM      5  N   UNL     1      54.399  71.966  37.833  0.00  0.00    +0.000 NA
ATOM      6  C   UNL     1      56.199  69.130  36.325  0.00  0.00    +0.000 C 
ATOM      7  C   UNL     1      55.143  70.100  36.815  0.00  0.00    +0.000 A 
ATOM      8  C   UNL     1      57.824  70.904  37.034  0.00  0.00    +0.000 C 
ATOM      9  C   UNL     1      56.805  71.635  37.893  0.00  0.00    +0.000 C 
ATOM     10  C   UNL     1      58.135  68.495  37.753  0.00  0.00    +0.000 C 
ATOM     11  C   UNL     1      53.390  71.217  37.340  0.00  0.00    +0.000 A 
ENDROOT
BRANCH  11  15
ATOM     12  F   UNL     1      51.092  70.820  36.761  0.00  0.00    +0.000 F 
ATOM     13  F   UNL     1      51.691  72.885  37.114  0.00  0.00    +0.000 F 
ATOM     14  F   UNL     1      51.509  71.496  38.789  0.00  0.00    +0.000 F 
ATOM     15  C   UNL     1      51.930  71.596  37.496  0.00  0.00    +0.000 C 
ENDBRANCH  11  15
BRANCH   6  16
ATOM     16  C   UNL     1      56.302  69.186  34.780  0.00  0.00    +0.000 C 
BRANCH  16  17
ATOM     17  C   UNL     1      57.623  68.709  34.224  0.00  0.00    +0.000 C 
ATOM     18  C   UNL     1      57.658  68.182  32.810  0.00  0.00    +0.000 C 
ATOM     19  C   UNL     1      57.896  67.249  33.960  0.00  0.00    +0.000 C 
ENDBRANCH  16  17
ENDBRANCH   6  16
BRANCH  10  20
ATOM     20  C   UNL     1      59.448  68.905  38.411  0.00  0.00    +0.000 C 
BRANCH  20  21
ATOM     21  C   UNL     1      59.486  68.798  39.945  0.00  0.00    +0.000 C 
BRANCH  21  22
ATOM     22  N   UNL     1      59.940  67.426  40.277  0.00  0.00    +0.000 NA
ATOM     23  H   UNL     1      60.958  67.413  40.323  0.00  0.00    +0.000 HD
ATOM     24  H   UNL     1      59.698  66.788  39.521  0.00  0.00    +0.000 HD
ENDBRANCH  21  22
BRANCH  21  25
ATOM     25  C   UNL     1      58.116  69.075  40.620  0.00  0.00    +0.000 C 
BRANCH  25  29
ATOM     26  F   UNL     1      56.348  69.363  42.845  0.00  0.00    +0.000 F 
ATOM     27  F   UNL     1      59.856  73.439  41.995  0.00  0.00    +0.000 F 
ATOM     28  F   UNL     1      58.025  73.592  44.023  0.00  0.00    +0.000 F 
ATOM     29  C   UNL     1      58.127  70.267  41.559  0.00  0.00    +0.000 A 
ATOM     30  C   UNL     1      57.219  70.356  42.625  0.00  0.00    +0.000 A 
ATOM     31  C   UNL     1      59.034  71.320  41.364  0.00  0.00    +0.000 A 
ATOM     32  C   UNL     1      58.997  72.434  42.201  0.00  0.00    +0.000 A 
ATOM     33  C   UNL     1      57.177  71.469  43.457  0.00  0.00    +0.000 A 
ATOM     34  C   UNL     1      58.070  72.508  43.235  0.00  0.00    +0.000 A 
ENDBRANCH  25  29
ENDBRANCH  21  25
ENDBRANCH  20  21
ENDBRANCH  10  20
TORSDOF 8
ENDMDL
MODEL 5
REMARK VINA RESULT:      -7.5      5.845      9.758
REMARK  Name = 10095827
REMARK  8 active torsions:
REMARK  status: ('A' for Active; 'I' for Inactive)
REMARK    1  A    between atoms: N_12  and  C_24
REMARK    2  A    between atoms: C_13  and  C_16
REMARK    3  A    between atoms: C_16  and  C_17
REMARK    4  A    between atoms: C_21  and  C_22
REMARK    5  A    between atoms: C_22  and  C_24
REMARK    6  A    between atoms: C_23  and  C_26
REMARK    7  A    between atoms: C_24  and  C_25
REMARK    8  A    between atoms: C_25  and  C_27
REMARK                            x       y       z     vdW  Elec       q    Type
REMARK                         _______ _______ _______ _____ _____    ______ ____
ROOT
ATOM      1  O   UNL     1      38.426  50.489  41.689  0.00  0.00    +0.000 OA
ATOM      2  N   UNL     1      36.603  51.358  42.783  0.00  0.00    +0.000 N 
ATOM      3  N   UNL     1      36.689  52.973  44.987  0.00  0.00    +0.000 N 
ATOM      4  N   UNL     1      37.638  51.567  46.352  0.00  0.00    +0.000 NA
ATOM      5  N   UNL     1      36.913  53.725  46.071  0.00  0.00    +0.000 NA
ATOM      6  C   UNL     1      36.963  50.650  44.047  0.00  0.00    +0.000 C 
ATOM      7  C   UNL     1      37.122  51.684  45.144  0.00  0.00    +0.000 A 
ATOM      8  C   UNL     1      35.579  52.407  42.911  0.00  0.00    +0.000 C 
ATOM      9  C   UNL     1      36.110  53.532  43.787  0.00  0.00    +0.000 C 
ATOM     10  C   UNL     1      37.430  51.205  41.667  0.00  0.00    +0.000 C 
ATOM     11  C   UNL     1      37.515  52.846  46.902  0.00  0.00    +0.000 A 
ENDROOT
BRANCH  11  15
ATOM     12  F   UNL     1      37.078  53.054  49.255  0.00  0.00    +0.000 F 
ATOM     13  F   UNL     1      38.395  54.534  48.349  0.00  0.00    +0.000 F 
ATOM     14  F   UNL     1      39.096  52.489  48.658  0.00  0.00    +0.000 F 
ATOM     15  C   UNL     1      38.012  53.226  48.283  0.00  0.00    +0.000 C 
ENDBRANCH  11  15
BRANCH   6  16
ATOM     16  C   UNL     1      35.896  49.601  44.451  0.00  0.00    +0.000 C 
BRANCH  16  17
ATOM     17  C   UNL     1      36.399  48.523  45.381  0.00  0.00    +0.000 C 
ATOM     18  C   UNL     1      35.527  47.313  45.616  0.00  0.00    +0.000 C 
ATOM     19  C   UNL     1      35.774  48.282  46.733  0.00  0.00    +0.000 C 
ENDBRANCH  16  17
ENDBRANCH   6  16
BRANCH  10  20
ATOM     20  C   UNL     1      37.016  51.959  40.408  0.00  0.00    +0.000 C 
BRANCH  20  21
ATOM     21  C   UNL     1      37.499  51.353  39.079  0.00  0.00    +0.000 C 
BRANCH  21  22
ATOM     22  N   UNL     1      38.856  51.893  38.821  0.00  0.00    +0.000 NA
ATOM     23  H   UNL     1      38.839  52.906  38.930  0.00  0.00    +0.000 HD
ATOM     24  H   UNL     1      39.113  51.733  37.848  0.00  0.00    +0.000 HD
ENDBRANCH  21  22
BRANCH  21  25
ATOM     25  C   UNL     1      36.570  51.671  37.878  0.00  0.00    +0.000 C 
BRANCH  25  29
ATOM     26  F   UNL     1      38.261  50.171  36.133  0.00  0.00    +0.000 F 
ATOM     27  F   UNL     1      33.114  48.454  36.588  0.00  0.00    +0.000 F 
ATOM     28  F   UNL     1      34.846  47.193  34.886  0.00  0.00    +0.000 F 
ATOM     29  C   UNL     1      36.116  50.442  37.114  0.00  0.00    +0.000 A 
ATOM     30  C   UNL     1      36.992  49.759  36.258  0.00  0.00    +0.000 A 
ATOM     31  C   UNL     1      34.798  49.977  37.230  0.00  0.00    +0.000 A 
ATOM     32  C   UNL     1      34.378  48.878  36.481  0.00  0.00    +0.000 A 
ATOM     33  C   UNL     1      36.575  48.667  35.505  0.00  0.00    +0.000 A 
ATOM     34  C   UNL     1      35.261  48.234  35.620  0.00  0.00    +0.000 A 
ENDBRANCH  25  29
ENDBRANCH  21  25
ENDBRANCH  20  21
ENDBRANCH  10  20
TORSDOF 8
ENDMDL
MODEL 6
REMARK VINA RESULT:      -7.0     21.550     24.529
REMARK  Name = 10095827
REMARK  8 active torsions:
REMARK  status: ('A' for Active; 'I' for Inactive)
REMARK    1  A    between atoms: N_12  and  C_24
REMARK    2  A    between atoms: C_13  and  C_16
REMARK    3  A    between atoms: C_16  and  C_17
REMARK    4  A    between atoms: C_21  and  C_22
REMARK    5  A    between atoms: C_22  and  C_24
REMARK    6  A    between atoms: C_23  and  C_26
REMARK    7  A    between atoms: C_24  and  C_25
REMARK    8  A    between atoms: C_25  and  C_27
REMARK                            x       y       z     vdW  Elec       q    Type
REMARK                         _______ _______ _______ _____ _____    ______ ____
ROOT
ATOM      1  O   UNL     1      55.843  67.623  38.767  0.00  0.00    +0.000 OA
ATOM      2  N   UNL     1      55.381  69.188  37.150  0.00  0.00    +0.000 N 
ATOM      3  N   UNL     1      53.593  71.242  37.386  0.00  0.00    +0.000 N 
ATOM      4  N   UNL     1      51.793  70.045  37.643  0.00  0.00    +0.000 NA
ATOM      5  N   UNL     1      52.665  72.166  37.661  0.00  0.00    +0.000 NA
ATOM      6  C   UNL     1      53.951  68.766  37.080  0.00  0.00    +0.000 C 
ATOM      7  C   UNL     1      53.083  69.973  37.377  0.00  0.00    +0.000 A 
ATOM      8  C   UNL     1      55.701  70.463  36.487  0.00  0.00    +0.000 C 
ATOM      9  C   UNL     1      54.980  71.600  37.195  0.00  0.00    +0.000 C 
ATOM     10  C   UNL     1      56.231  68.542  38.051  0.00  0.00    +0.000 C 
ATOM     11  C   UNL     1      51.559  71.410  37.832  0.00  0.00    +0.000 A 
ENDROOT
BRANCH  11  15
ATOM     12  F   UNL     1      49.163  71.301  37.686  0.00  0.00    +0.000 F 
ATOM     13  F   UNL     1      50.071  73.280  37.769  0.00  0.00    +0.000 F 
ATOM     14  F   UNL     1      50.019  72.024  39.555  0.00  0.00    +0.000 F 
ATOM     15  C   UNL     1      50.211  71.994  38.205  0.00  0.00    +0.000 C 
ENDBRANCH  11  15
BRANCH   6  16
ATOM     16  C   UNL     1      53.587  68.172  35.696  0.00  0.00    +0.000 C 
BRANCH  16  17
ATOM     17  C   UNL     1      54.610  67.211  35.139  0.00  0.00    +0.000 C 
ATOM     18  C   UNL     1      55.313  67.577  33.854  0.00  0.00    +0.000 C 
ATOM     19  C   UNL     1      54.358  66.420  33.879  0.00  0.00    +0.000 C 
ENDBRANCH  16  17
ENDBRANCH   6  16
BRANCH  10  20
ATOM     20  C   UNL     1      57.678  69.023  38.083  0.00  0.00    +0.000 C 
BRANCH  20  21
ATOM     21  C   UNL     1      57.990  70.124  39.110  0.00  0.00    +0.000 C 
BRANCH  21  22
ATOM     22  N   UNL     1      59.311  70.694  38.752  0.00  0.00    +0.000 NA
ATOM     23  H   UNL     1      59.926  69.943  38.440  0.00  0.00    +0.000 HD
ATOM     24  H   UNL     1      59.760  71.080  39.581  0.00  0.00    +0.000 HD
ENDBRANCH  21  22
BRANCH  21  25
ATOM     25  C   UNL     1      58.019  69.616  40.576  0.00  0.00    +0.000 C 
BRANCH  25  29
ATOM     26  F   UNL     1      59.538  70.916  42.616  0.00  0.00    +0.000 F 
ATOM     27  F   UNL     1      54.213  72.045  42.467  0.00  0.00    +0.000 F 
ATOM     28  F   UNL     1      55.801  73.127  44.415  0.00  0.00    +0.000 F 
ATOM     29  C   UNL     1      57.428  70.594  41.575  0.00  0.00    +0.000 A 
ATOM     30  C   UNL     1      58.226  71.186  42.564  0.00  0.00    +0.000 A 
ATOM     31  C   UNL     1      56.061  70.907  41.542  0.00  0.00    +0.000 A 
ATOM     32  C   UNL     1      55.521  71.766  42.499  0.00  0.00    +0.000 A 
ATOM     33  C   UNL     1      57.689  72.037  43.523  0.00  0.00    +0.000 A 
ATOM     34  C   UNL     1      56.331  72.320  43.485  0.00  0.00    +0.000 A 
ENDBRANCH  25  29
ENDBRANCH  21  25
ENDBRANCH  20  21
ENDBRANCH  10  20
TORSDOF 8
ENDMDL
MODEL 7
REMARK VINA RESULT:      -6.9     20.919     24.098
REMARK  Name = 10095827
REMARK  8 active torsions:
REMARK  status: ('A' for Active; 'I' for Inactive)
REMARK    1  A    between atoms: N_12  and  C_24
REMARK    2  A    between atoms: C_13  and  C_16
REMARK    3  A    between atoms: C_16  and  C_17
REMARK    4  A    between atoms: C_21  and  C_22
REMARK    5  A    between atoms: C_22  and  C_24
REMARK    6  A    between atoms: C_23  and  C_26
REMARK    7  A    between atoms: C_24  and  C_25
REMARK    8  A    between atoms: C_25  and  C_27
REMARK                            x       y       z     vdW  Elec       q    Type
REMARK                         _______ _______ _______ _____ _____    ______ ____
ROOT
ATOM      1  O   UNL     1      54.484  68.338  39.619  0.00  0.00    +0.000 OA
ATOM      2  N   UNL     1      53.470  69.372  37.835  0.00  0.00    +0.000 N 
ATOM      3  N   UNL     1      51.780  71.515  37.987  0.00  0.00    +0.000 N 
ATOM      4  N   UNL     1      50.202  70.569  39.152  0.00  0.00    +0.000 NA
ATOM      5  N   UNL     1      50.956  72.537  38.246  0.00  0.00    +0.000 NA
ATOM      6  C   UNL     1      52.110  69.043  38.354  0.00  0.00    +0.000 C 
ATOM      7  C   UNL     1      51.340  70.337  38.527  0.00  0.00    +0.000 A 
ATOM      8  C   UNL     1      53.514  70.366  36.750  0.00  0.00    +0.000 C 
ATOM      9  C   UNL     1      53.018  71.707  37.267  0.00  0.00    +0.000 C 
ATOM     10  C   UNL     1      54.588  68.972  38.573  0.00  0.00    +0.000 C 
ATOM     11  C   UNL     1      49.992  71.940  38.980  0.00  0.00    +0.000 A 
ENDROOT
BRANCH  11  15
ATOM     12  F   UNL     1      47.671  71.963  39.602  0.00  0.00    +0.000 F 
ATOM     13  F   UNL     1      48.521  73.821  38.848  0.00  0.00    +0.000 F 
ATOM     14  F   UNL     1      49.050  73.106  40.843  0.00  0.00    +0.000 F 
ATOM     15  C   UNL     1      48.814  72.696  39.563  0.00  0.00    +0.000 C 
ENDBRANCH  11  15
BRANCH   6  16
ATOM     16  C   UNL     1      51.343  68.086  37.408  0.00  0.00    +0.000 C 
BRANCH  16  17
ATOM     17  C   UNL     1      52.092  66.823  37.054  0.00  0.00    +0.000 C 
ATOM     18  C   UNL     1      52.478  66.598  35.611  0.00  0.00    +0.000 C 
ATOM     19  C   UNL     1      51.451  65.714  36.255  0.00  0.00    +0.000 C 
ENDBRANCH  16  17
ENDBRANCH   6  16
BRANCH  10  20
ATOM     20  C   UNL     1      55.950  69.345  37.997  0.00  0.00    +0.000 C 
BRANCH  20  21
ATOM     21  C   UNL     1      56.676  70.503  38.702  0.00  0.00    +0.000 C 
BRANCH  21  22
ATOM     22  N   UNL     1      57.276  71.351  37.645  0.00  0.00    +0.000 NA
ATOM     23  H   UNL     1      57.175  72.332  37.906  0.00  0.00    +0.000 HD
ATOM     24  H   UNL     1      56.751  71.250  36.778  0.00  0.00    +0.000 HD
ENDBRANCH  21  22
BRANCH  21  25
ATOM     25  C   UNL     1      57.779  70.034  39.688  0.00  0.00    +0.000 C 
BRANCH  25  29
ATOM     26  F   UNL     1      55.926  70.237  41.853  0.00  0.00    +0.000 F 
ATOM     27  F   UNL     1      60.306  73.462  42.101  0.00  0.00    +0.000 F 
ATOM     28  F   UNL     1      58.380  73.595  44.041  0.00  0.00    +0.000 F 
ATOM     29  C   UNL     1      57.968  70.957  40.878  0.00  0.00    +0.000 A 
ATOM     30  C   UNL     1      57.011  71.022  41.901  0.00  0.00    +0.000 A 
ATOM     31  C   UNL     1      59.097  71.784  40.966  0.00  0.00    +0.000 A 
ATOM     32  C   UNL     1      59.232  72.666  42.037  0.00  0.00    +0.000 A 
ATOM     33  C   UNL     1      57.140  71.906  42.967  0.00  0.00    +0.000 A 
ATOM     34  C   UNL     1      58.256  72.729  43.026  0.00  0.00    +0.000 A 
ENDBRANCH  25  29
ENDBRANCH  21  25
ENDBRANCH  20  21
ENDBRANCH  10  20
TORSDOF 8
ENDMDL
MODEL 8
REMARK VINA RESULT:      -6.5      5.338      7.554
REMARK  Name = 10095827
REMARK  8 active torsions:
REMARK  status: ('A' for Active; 'I' for Inactive)
REMARK    1  A    between atoms: N_12  and  C_24
REMARK    2  A    between atoms: C_13  and  C_16
REMARK    3  A    between atoms: C_16  and  C_17
REMARK    4  A    between atoms: C_21  and  C_22
REMARK    5  A    between atoms: C_22  and  C_24
REMARK    6  A    between atoms: C_23  and  C_26
REMARK    7  A    between atoms: C_24  and  C_25
REMARK    8  A    between atoms: C_25  and  C_27
REMARK                            x       y       z     vdW  Elec       q    Type
REMARK                         _______ _______ _______ _____ _____    ______ ____
ROOT
ATOM      1  O   UNL     1      36.902  50.835  41.129  0.00  0.00    +0.000 OA
ATOM      2  N   UNL     1      37.290  52.042  43.044  0.00  0.00    +0.000 N 
ATOM      3  N   UNL     1      37.326  51.032  45.584  0.00  0.00    +0.000 N 
ATOM      4  N   UNL     1      35.257  50.357  45.667  0.00  0.00    +0.000 NA
ATOM      5  N   UNL     1      37.278  50.380  46.752  0.00  0.00    +0.000 NA
ATOM      6  C   UNL     1      35.941  51.706  43.588  0.00  0.00    +0.000 C 
ATOM      7  C   UNL     1      36.125  51.021  44.927  0.00  0.00    +0.000 A 
ATOM      8  C   UNL     1      38.236  52.627  44.008  0.00  0.00    +0.000 C 
ATOM      9  C   UNL     1      38.556  51.608  45.091  0.00  0.00    +0.000 C 
ATOM     10  C   UNL     1      37.661  51.531  41.797  0.00  0.00    +0.000 C 
ATOM     11  C   UNL     1      35.997  49.955  46.782  0.00  0.00    +0.000 A 
ENDROOT
BRANCH  11  15
ATOM     12  F   UNL     1      34.766  49.847  48.843  0.00  0.00    +0.000 F 
ATOM     13  F   UNL     1      36.411  48.442  48.588  0.00  0.00    +0.000 F 
ATOM     14  F   UNL     1      34.558  48.172  47.466  0.00  0.00    +0.000 F 
ATOM     15  C   UNL     1      35.435  49.116  47.914  0.00  0.00    +0.000 C 
ENDBRANCH  11  15
BRANCH   6  16
ATOM     16  C   UNL     1      35.048  52.962  43.747  0.00  0.00    +0.000 C 
BRANCH  16  17
ATOM     17  C   UNL     1      34.784  53.365  45.179  0.00  0.00    +0.000 C 
ATOM     18  C   UNL     1      34.183  54.724  45.442  0.00  0.00    +0.000 C 
ATOM     19  C   UNL     1      35.593  54.437  45.866  0.00  0.00    +0.000 C 
ENDBRANCH  16  17
ENDBRANCH   6  16
BRANCH  10  20
ATOM     20  C   UNL     1      39.053  51.902  41.299  0.00  0.00    +0.000 C 
BRANCH  20  21
ATOM     21  C   UNL     1      39.426  51.365  39.906  0.00  0.00    +0.000 C 
BRANCH  21  22
ATOM     22  N   UNL     1      40.197  50.115  40.111  0.00  0.00    +0.000 NA
ATOM     23  H   UNL     1      39.635  49.322  39.800  0.00  0.00    +0.000 HD
ATOM     24  H   UNL     1      40.351  49.961  41.106  0.00  0.00    +0.000 HD
ENDBRANCH  21  22
BRANCH  21  25
ATOM     25  C   UNL     1      40.261  52.364  39.061  0.00  0.00    +0.000 C 
BRANCH  25  29
ATOM     26  F   UNL     1      38.519  51.686  36.901  0.00  0.00    +0.000 F 
ATOM     27  F   UNL     1      43.826  50.757  36.117  0.00  0.00    +0.000 F 
ATOM     28  F   UNL     1      42.005  50.077  34.191  0.00  0.00    +0.000 F 
ATOM     29  C   UNL     1      40.738  51.795  37.738  0.00  0.00    +0.000 A 
ATOM     30  C   UNL     1      39.828  51.466  36.722  0.00  0.00    +0.000 A 
ATOM     31  C   UNL     1      42.103  51.562  37.513  0.00  0.00    +0.000 A 
ATOM     32  C   UNL     1      42.523  50.989  36.314  0.00  0.00    +0.000 A 
ATOM     33  C   UNL     1      40.244  50.888  35.528  0.00  0.00    +0.000 A 
ATOM     34  C   UNL     1      41.597  50.649  35.332  0.00  0.00    +0.000 A 
ENDBRANCH  25  29
ENDBRANCH  21  25
ENDBRANCH  20  21
ENDBRANCH  10  20
TORSDOF 8
ENDMDL
MODEL 9
REMARK VINA RESULT:      -6.4     17.175     18.853
REMARK  Name = 10095827
REMARK  8 active torsions:
REMARK  status: ('A' for Active; 'I' for Inactive)
REMARK    1  A    between atoms: N_12  and  C_24
REMARK    2  A    between atoms: C_13  and  C_16
REMARK    3  A    between atoms: C_16  and  C_17
REMARK    4  A    between atoms: C_21  and  C_22
REMARK    5  A    between atoms: C_22  and  C_24
REMARK    6  A    between atoms: C_23  and  C_26
REMARK    7  A    between atoms: C_24  and  C_25
REMARK    8  A    between atoms: C_25  and  C_27
REMARK                            x       y       z     vdW  Elec       q    Type
REMARK                         _______ _______ _______ _____ _____    ______ ____
ROOT
ATOM      1  O   UNL     1      48.342  65.692  41.226  0.00  0.00    +0.000 OA
ATOM      2  N   UNL     1      46.832  67.303  40.590  0.00  0.00    +0.000 N 
ATOM      3  N   UNL     1      44.188  67.368  41.278  0.00  0.00    +0.000 N 
ATOM      4  N   UNL     1      43.581  65.513  40.312  0.00  0.00    +0.000 NA
ATOM      5  N   UNL     1      42.920  67.229  41.683  0.00  0.00    +0.000 NA
ATOM      6  C   UNL     1      45.989  66.300  39.875  0.00  0.00    +0.000 C 
ATOM      7  C   UNL     1      44.592  66.346  40.462  0.00  0.00    +0.000 A 
ATOM      8  C   UNL     1      46.207  68.617  40.811  0.00  0.00    +0.000 C 
ATOM      9  C   UNL     1      45.011  68.463  41.737  0.00  0.00    +0.000 C 
ATOM     10  C   UNL     1      47.988  66.868  41.244  0.00  0.00    +0.000 C 
ATOM     11  C   UNL     1      42.562  66.069  41.091  0.00  0.00    +0.000 A 
ENDROOT
BRANCH  11  15
ATOM     12  F   UNL     1      40.352  65.680  40.233  0.00  0.00    +0.000 F 
ATOM     13  F   UNL     1      40.562  65.897  42.390  0.00  0.00    +0.000 F 
ATOM     14  F   UNL     1      41.267  64.084  41.399  0.00  0.00    +0.000 F 
ATOM     15  C   UNL     1      41.195  65.439  41.271  0.00  0.00    +0.000 C 
ENDBRANCH  11  15
BRANCH   6  16
ATOM     16  C   UNL     1      45.938  66.564  38.349  0.00  0.00    +0.000 C 
BRANCH  16  17
ATOM     17  C   UNL     1      46.333  65.382  37.496  0.00  0.00    +0.000 C 
ATOM     18  C   UNL     1      45.522  65.090  36.256  0.00  0.00    +0.000 C 
ATOM     19  C   UNL     1      45.482  64.139  37.415  0.00  0.00    +0.000 C 
ENDBRANCH  16  17
ENDBRANCH   6  16
BRANCH  10  20
ATOM     20  C   UNL     1      48.803  67.936  41.964  0.00  0.00    +0.000 C 
BRANCH  20  21
ATOM     21  C   UNL     1      50.019  68.479  41.192  0.00  0.00    +0.000 C 
BRANCH  21  22
ATOM     22  N   UNL     1      51.115  67.494  41.355  0.00  0.00    +0.000 NA
ATOM     23  H   UNL     1      51.103  66.847  40.568  0.00  0.00    +0.000 HD
ATOM     24  H   UNL     1      50.945  66.919  42.178  0.00  0.00    +0.000 HD
ENDBRANCH  21  22
BRANCH  21  25
ATOM     25  C   UNL     1      50.489  69.875  41.678  0.00  0.00    +0.000 C 
BRANCH  25  29
ATOM     26  F   UNL     1      51.007  70.573  38.957  0.00  0.00    +0.000 F 
ATOM     27  F   UNL     1      47.442  73.705  41.627  0.00  0.00    +0.000 F 
ATOM     28  F   UNL     1      48.129  74.287  39.043  0.00  0.00    +0.000 F 
ATOM     29  C   UNL     1      49.818  71.031  40.961  0.00  0.00    +0.000 A 
ATOM     30  C   UNL     1      50.129  71.333  39.627  0.00  0.00    +0.000 A 
ATOM     31  C   UNL     1      48.886  71.840  41.629  0.00  0.00    +0.000 A 
ATOM     32  C   UNL     1      48.317  72.931  40.974  0.00  0.00    +0.000 A 
ATOM     33  C   UNL     1      49.568  72.425  38.975  0.00  0.00    +0.000 A 
ATOM     34  C   UNL     1      48.662  73.223  39.659  0.00  0.00    +0.000 A 
ENDBRANCH  25  29
ENDBRANCH  21  25
ENDBRANCH  20  21
ENDBRANCH  10  20
TORSDOF 8
ENDMDL
