MODEL 1
REMARK VINA RESULT:     -10.0      0.000      0.000
REMARK  Name = 24777177
REMARK  10 active torsions:
REMARK  status: ('A' for Active; 'I' for Inactive)
REMARK    1  A    between atoms: N_18  and  C_28
REMARK    2  A    between atoms: C_19  and  C_23
REMARK    3  A    between atoms: C_23  and  C_27
REMARK    4  A    between atoms: C_24  and  C_25
REMARK    5  A    between atoms: C_25  and  C_28
REMARK    6  A    between atoms: C_26  and  C_32
REMARK    7  A    between atoms: C_28  and  C_29
REMARK    8  A    between atoms: C_29  and  C_35
REMARK    9  A    between atoms: C_33  and  C_38
REMARK   10  A    between atoms: C_34  and  C_37
REMARK                            x       y       z     vdW  Elec       q    Type
REMARK                         _______ _______ _______ _____ _____    ______ ____
ROOT
ATOM      1  O   UNL     1      37.626  50.839  41.331  0.00  0.00    +0.000 OA
ATOM      2  N   UNL     1      36.639  52.723  42.163  0.00  0.00    +0.000 N 
ATOM      3  N   UNL     1      36.790  54.762  44.054  0.00  0.00    +0.000 N 
ATOM      4  N   UNL     1      37.570  53.529  45.671  0.00  0.00    +0.000 NA
ATOM      5  N   UNL     1      37.547  54.836  46.091  0.00  0.00    +0.000 NA
ATOM      6  C   UNL     1      36.923  52.274  43.563  0.00  0.00    +0.000 C 
ATOM      7  C   UNL     1      35.752  53.882  42.019  0.00  0.00    +0.000 C 
ATOM      8  C   UNL     1      37.101  53.484  44.443  0.00  0.00    +0.000 A 
ATOM      9  C   UNL     1      36.315  55.102  42.732  0.00  0.00    +0.000 C 
ATOM     10  C   UNL     1      37.030  51.898  41.119  0.00  0.00    +0.000 C 
ATOM     11  C   UNL     1      37.084  55.588  45.107  0.00  0.00    +0.000 A 
ENDROOT
BRANCH  11  15
ATOM     12  F   UNL     1      37.138  57.609  46.339  0.00  0.00    +0.000 F 
ATOM     13  F   UNL     1      35.637  57.433  44.782  0.00  0.00    +0.000 F 
ATOM     14  F   UNL     1      37.743  57.685  44.254  0.00  0.00    +0.000 F 
ATOM     15  C   UNL     1      36.898  57.062  45.115  0.00  0.00    +0.000 C 
ENDBRANCH  11  15
BRANCH   6  16
ATOM     16  C   UNL     1      35.801  51.338  44.093  0.00  0.00    +0.000 C 
BRANCH  16  17
ATOM     17  C   UNL     1      36.249  50.097  44.844  0.00  0.00    +0.000 A 
ATOM     18  C   UNL     1      37.564  49.621  44.706  0.00  0.00    +0.000 A 
ATOM     19  C   UNL     1      35.377  49.414  45.704  0.00  0.00    +0.000 A 
ATOM     20  C   UNL     1      38.008  48.480  45.394  0.00  0.00    +0.000 A 
ATOM     21  C   UNL     1      35.793  48.263  46.400  0.00  0.00    +0.000 A 
ATOM     22  C   UNL     1      37.109  47.801  46.229  0.00  0.00    +0.000 A 
BRANCH  21  26
ATOM     23  F   UNL     1      34.413  46.339  46.838  0.00  0.00    +0.000 F 
ATOM     24  F   UNL     1      35.434  47.242  48.534  0.00  0.00    +0.000 F 
ATOM     25  F   UNL     1      33.742  48.252  47.620  0.00  0.00    +0.000 F 
ATOM     26  C   UNL     1      34.859  47.526  47.332  0.00  0.00    +0.000 C 
ENDBRANCH  21  26
BRANCH  20  30
ATOM     27  F   UNL     1      40.343  48.750  45.914  0.00  0.00    +0.000 F 
ATOM     28  F   UNL     1      39.585  46.722  45.741  0.00  0.00    +0.000 F 
ATOM     29  F   UNL     1      39.848  47.937  43.958  0.00  0.00    +0.000 F 
ATOM     30  C   UNL     1      39.430  47.986  45.252  0.00  0.00    +0.000 C 
ENDBRANCH  20  30
ENDBRANCH  16  17
ENDBRANCH   6  16
BRANCH  10  31
ATOM     31  C   UNL     1      36.775  52.324  39.677  0.00  0.00    +0.000 C 
BRANCH  31  32
ATOM     32  C   UNL     1      37.374  51.343  38.649  0.00  0.00    +0.000 C 
BRANCH  32  33
ATOM     33  N   UNL     1      38.814  51.636  38.522  0.00  0.00    +0.000 NA
ATOM     34  H   UNL     1      38.975  52.226  37.703  0.00  0.00    +0.000 HD
ATOM     35  H   UNL     1      39.324  50.772  38.328  0.00  0.00    +0.000 HD
ENDBRANCH  32  33
BRANCH  32  36
ATOM     36  C   UNL     1      36.639  51.460  37.290  0.00  0.00    +0.000 C 
BRANCH  36  40
ATOM     37  F   UNL     1      38.062  49.393  35.938  0.00  0.00    +0.000 F 
ATOM     38  F   UNL     1      32.740  48.566  36.752  0.00  0.00    +0.000 F 
ATOM     39  F   UNL     1      34.276  46.613  35.604  0.00  0.00    +0.000 F 
ATOM     40  C   UNL     1      35.989  50.206  36.750  0.00  0.00    +0.000 A 
ATOM     41  C   UNL     1      36.749  49.203  36.134  0.00  0.00    +0.000 A 
ATOM     42  C   UNL     1      34.616  49.980  36.942  0.00  0.00    +0.000 A 
ATOM     43  C   UNL     1      34.046  48.772  36.545  0.00  0.00    +0.000 A 
ATOM     44  C   UNL     1      36.181  47.996  35.735  0.00  0.00    +0.000 A 
ATOM     45  C   UNL     1      34.827  47.784  35.955  0.00  0.00    +0.000 A 
ENDBRANCH  36  40
ENDBRANCH  32  36
ENDBRANCH  31  32
ENDBRANCH  10  31
TORSDOF 10
ENDMDL
MODEL 2
REMARK VINA RESULT:      -9.6      1.652      2.690
REMARK  Name = 24777177
REMARK  10 active torsions:
REMARK  status: ('A' for Active; 'I' for Inactive)
REMARK    1  A    between atoms: N_18  and  C_28
REMARK    2  A    between atoms: C_19  and  C_23
REMARK    3  A    between atoms: C_23  and  C_27
REMARK    4  A    between atoms: C_24  and  C_25
REMARK    5  A    between atoms: C_25  and  C_28
REMARK    6  A    between atoms: C_26  and  C_32
REMARK    7  A    between atoms: C_28  and  C_29
REMARK    8  A    between atoms: C_29  and  C_35
REMARK    9  A    between atoms: C_33  and  C_38
REMARK   10  A    between atoms: C_34  and  C_37
REMARK                            x       y       z     vdW  Elec       q    Type
REMARK                         _______ _______ _______ _____ _____    ______ ____
ROOT
ATOM      1  O   UNL     1      37.226  51.192  42.142  0.00  0.00    +0.000 OA
ATOM      2  N   UNL     1      36.361  53.241  42.665  0.00  0.00    +0.000 N 
ATOM      3  N   UNL     1      36.537  55.458  44.340  0.00  0.00    +0.000 N 
ATOM      4  N   UNL     1      37.031  54.352  46.149  0.00  0.00    +0.000 NA
ATOM      5  N   UNL     1      37.101  55.695  46.427  0.00  0.00    +0.000 NA
ATOM      6  C   UNL     1      36.464  52.930  44.126  0.00  0.00    +0.000 C 
ATOM      7  C   UNL     1      35.613  54.451  42.309  0.00  0.00    +0.000 C 
ATOM      8  C   UNL     1      36.679  54.210  44.890  0.00  0.00    +0.000 A 
ATOM      9  C   UNL     1      36.228  55.688  42.947  0.00  0.00    +0.000 C 
ATOM     10  C   UNL     1      36.764  52.270  41.759  0.00  0.00    +0.000 C 
ATOM     11  C   UNL     1      36.813  56.368  45.326  0.00  0.00    +0.000 A 
ENDROOT
BRANCH  11  15
ATOM     12  F   UNL     1      35.558  58.293  44.752  0.00  0.00    +0.000 F 
ATOM     13  F   UNL     1      37.667  58.291  44.241  0.00  0.00    +0.000 F 
ATOM     14  F   UNL     1      37.042  58.491  46.326  0.00  0.00    +0.000 F 
ATOM     15  C   UNL     1      36.777  57.845  45.162  0.00  0.00    +0.000 C 
ENDBRANCH  11  15
BRANCH   6  16
ATOM     16  C   UNL     1      35.207  52.165  44.629  0.00  0.00    +0.000 C 
BRANCH  16  17
ATOM     17  C   UNL     1      35.433  51.121  45.708  0.00  0.00    +0.000 A 
ATOM     18  C   UNL     1      35.414  51.486  47.064  0.00  0.00    +0.000 A 
ATOM     19  C   UNL     1      35.641  49.772  45.381  0.00  0.00    +0.000 A 
ATOM     20  C   UNL     1      35.612  50.540  48.082  0.00  0.00    +0.000 A 
ATOM     21  C   UNL     1      35.851  48.805  46.381  0.00  0.00    +0.000 A 
ATOM     22  C   UNL     1      35.844  49.203  47.728  0.00  0.00    +0.000 A 
BRANCH  21  26
ATOM     23  F   UNL     1      35.339  46.922  44.969  0.00  0.00    +0.000 F 
ATOM     24  F   UNL     1      37.369  47.071  45.737  0.00  0.00    +0.000 F 
ATOM     25  F   UNL     1      35.741  46.522  47.066  0.00  0.00    +0.000 F 
ATOM     26  C   UNL     1      36.070  47.350  46.035  0.00  0.00    +0.000 C 
ENDBRANCH  21  26
BRANCH  20  30
ATOM     27  F   UNL     1      34.749  50.165  50.298  0.00  0.00    +0.000 F 
ATOM     28  F   UNL     1      36.801  50.858  50.128  0.00  0.00    +0.000 F 
ATOM     29  F   UNL     1      35.158  52.223  49.727  0.00  0.00    +0.000 F 
ATOM     30  C   UNL     1      35.573  50.941  49.540  0.00  0.00    +0.000 C 
ENDBRANCH  20  30
ENDBRANCH  16  17
ENDBRANCH   6  16
BRANCH  10  31
ATOM     31  C   UNL     1      36.691  52.552  40.262  0.00  0.00    +0.000 C 
BRANCH  31  32
ATOM     32  C   UNL     1      36.881  51.283  39.406  0.00  0.00    +0.000 C 
BRANCH  32  33
ATOM     33  N   UNL     1      38.274  50.825  39.568  0.00  0.00    +0.000 NA
ATOM     34  H   UNL     1      38.878  51.318  38.908  0.00  0.00    +0.000 HD
ATOM     35  H   UNL     1      38.344  49.841  39.305  0.00  0.00    +0.000 HD
ENDBRANCH  32  33
BRANCH  32  36
ATOM     36  C   UNL     1      36.536  51.569  37.922  0.00  0.00    +0.000 C 
BRANCH  36  40
ATOM     37  F   UNL     1      38.215  49.987  36.248  0.00  0.00    +0.000 F 
ATOM     38  F   UNL     1      32.986  48.498  36.570  0.00  0.00    +0.000 F 
ATOM     39  F   UNL     1      34.758  46.994  35.124  0.00  0.00    +0.000 F 
ATOM     40  C   UNL     1      36.042  50.404  37.095  0.00  0.00    +0.000 A 
ATOM     41  C   UNL     1      36.924  49.635  36.325  0.00  0.00    +0.000 A 
ATOM     42  C   UNL     1      34.694  50.012  37.158  0.00  0.00    +0.000 A 
ATOM     43  C   UNL     1      34.269  48.868  36.484  0.00  0.00    +0.000 A 
ATOM     44  C   UNL     1      36.501  48.492  35.650  0.00  0.00    +0.000 A 
ATOM     45  C   UNL     1      35.170  48.109  35.744  0.00  0.00    +0.000 A 
ENDBRANCH  36  40
ENDBRANCH  32  36
ENDBRANCH  31  32
ENDBRANCH  10  31
TORSDOF 10
ENDMDL
MODEL 3
REMARK VINA RESULT:      -9.6      1.644      2.309
REMARK  Name = 24777177
REMARK  10 active torsions:
REMARK  status: ('A' for Active; 'I' for Inactive)
REMARK    1  A    between atoms: N_18  and  C_28
REMARK    2  A    between atoms: C_19  and  C_23
REMARK    3  A    between atoms: C_23  and  C_27
REMARK    4  A    between atoms: C_24  and  C_25
REMARK    5  A    between atoms: C_25  and  C_28
REMARK    6  A    between atoms: C_26  and  C_32
REMARK    7  A    between atoms: C_28  and  C_29
REMARK    8  A    between atoms: C_29  and  C_35
REMARK    9  A    between atoms: C_33  and  C_38
REMARK   10  A    between atoms: C_34  and  C_37
REMARK                            x       y       z     vdW  Elec       q    Type
REMARK                         _______ _______ _______ _____ _____    ______ ____
ROOT
ATOM      1  O   UNL     1      37.246  51.218  42.146  0.00  0.00    +0.000 OA
ATOM      2  N   UNL     1      36.339  53.245  42.679  0.00  0.00    +0.000 N 
ATOM      3  N   UNL     1      36.446  55.442  44.387  0.00  0.00    +0.000 N 
ATOM      4  N   UNL     1      36.922  54.318  46.190  0.00  0.00    +0.000 NA
ATOM      5  N   UNL     1      36.965  55.658  46.488  0.00  0.00    +0.000 NA
ATOM      6  C   UNL     1      36.417  52.916  44.137  0.00  0.00    +0.000 C 
ATOM      7  C   UNL     1      35.579  54.449  42.324  0.00  0.00    +0.000 C 
ATOM      8  C   UNL     1      36.597  54.189  44.923  0.00  0.00    +0.000 A 
ATOM      9  C   UNL     1      36.161  55.686  42.991  0.00  0.00    +0.000 C 
ATOM     10  C   UNL     1      36.775  52.294  41.768  0.00  0.00    +0.000 C 
ATOM     11  C   UNL     1      36.688  56.342  45.391  0.00  0.00    +0.000 A 
ENDROOT
BRANCH  11  15
ATOM     12  F   UNL     1      37.418  58.272  44.229  0.00  0.00    +0.000 F 
ATOM     13  F   UNL     1      37.050  58.472  46.359  0.00  0.00    +0.000 F 
ATOM     14  F   UNL     1      35.376  58.256  44.969  0.00  0.00    +0.000 F 
ATOM     15  C   UNL     1      36.632  57.820  45.245  0.00  0.00    +0.000 C 
ENDBRANCH  11  15
BRANCH   6  16
ATOM     16  C   UNL     1      35.164  52.124  44.605  0.00  0.00    +0.000 C 
BRANCH  16  17
ATOM     17  C   UNL     1      35.380  51.088  45.693  0.00  0.00    +0.000 A 
ATOM     18  C   UNL     1      35.607  49.744  45.357  0.00  0.00    +0.000 A 
ATOM     19  C   UNL     1      35.382  51.449  47.049  0.00  0.00    +0.000 A 
ATOM     20  C   UNL     1      35.818  48.766  46.343  0.00  0.00    +0.000 A 
ATOM     21  C   UNL     1      35.582  50.489  48.058  0.00  0.00    +0.000 A 
ATOM     22  C   UNL     1      35.790  49.148  47.692  0.00  0.00    +0.000 A 
BRANCH  21  26
ATOM     23  F   UNL     1      36.766  50.602  50.151  0.00  0.00    +0.000 F 
ATOM     24  F   UNL     1      35.354  52.199  49.716  0.00  0.00    +0.000 F 
ATOM     25  F   UNL     1      34.629  50.216  50.229  0.00  0.00    +0.000 F 
ATOM     26  C   UNL     1      35.591  50.872  49.520  0.00  0.00    +0.000 C 
ENDBRANCH  21  26
BRANCH  20  30
ATOM     27  F   UNL     1      35.437  46.928  44.835  0.00  0.00    +0.000 F 
ATOM     28  F   UNL     1      37.401  47.081  45.749  0.00  0.00    +0.000 F 
ATOM     29  F   UNL     1      35.698  46.448  46.941  0.00  0.00    +0.000 F 
ATOM     30  C   UNL     1      36.078  47.323  45.971  0.00  0.00    +0.000 C 
ENDBRANCH  20  30
ENDBRANCH  16  17
ENDBRANCH   6  16
BRANCH  10  31
ATOM     31  C   UNL     1      36.727  52.595  40.274  0.00  0.00    +0.000 C 
BRANCH  31  32
ATOM     32  C   UNL     1      36.878  51.329  39.405  0.00  0.00    +0.000 C 
BRANCH  32  33
ATOM     33  N   UNL     1      38.260  50.837  39.548  0.00  0.00    +0.000 NA
ATOM     34  H   UNL     1      38.668  50.679  38.625  0.00  0.00    +0.000 HD
ATOM     35  H   UNL     1      38.252  49.918  39.994  0.00  0.00    +0.000 HD
ENDBRANCH  32  33
BRANCH  32  36
ATOM     36  C   UNL     1      36.525  51.637  37.927  0.00  0.00    +0.000 C 
BRANCH  36  40
ATOM     37  F   UNL     1      38.222  50.069  36.258  0.00  0.00    +0.000 F 
ATOM     38  F   UNL     1      32.986  48.587  36.499  0.00  0.00    +0.000 F 
ATOM     39  F   UNL     1      34.774  47.095  35.061  0.00  0.00    +0.000 F 
ATOM     40  C   UNL     1      36.038  50.481  37.083  0.00  0.00    +0.000 A 
ATOM     41  C   UNL     1      36.929  49.719  36.316  0.00  0.00    +0.000 A 
ATOM     42  C   UNL     1      34.690  50.091  37.124  0.00  0.00    +0.000 A 
ATOM     43  C   UNL     1      34.271  48.956  36.433  0.00  0.00    +0.000 A 
ATOM     44  C   UNL     1      36.512  48.584  35.624  0.00  0.00    +0.000 A 
ATOM     45  C   UNL     1      35.179  48.202  35.697  0.00  0.00    +0.000 A 
ENDBRANCH  36  40
ENDBRANCH  32  36
ENDBRANCH  31  32
ENDBRANCH  10  31
TORSDOF 10
ENDMDL
MODEL 4
REMARK VINA RESULT:      -9.4      2.386      3.725
REMARK  Name = 24777177
REMARK  10 active torsions:
REMARK  status: ('A' for Active; 'I' for Inactive)
REMARK    1  A    between atoms: N_18  and  C_28
REMARK    2  A    between atoms: C_19  and  C_23
REMARK    3  A    between atoms: C_23  and  C_27
REMARK    4  A    between atoms: C_24  and  C_25
REMARK    5  A    between atoms: C_25  and  C_28
REMARK    6  A    between atoms: C_26  and  C_32
REMARK    7  A    between atoms: C_28  and  C_29
REMARK    8  A    between atoms: C_29  and  C_35
REMARK    9  A    between atoms: C_33  and  C_38
REMARK   10  A    between atoms: C_34  and  C_37
REMARK                            x       y       z     vdW  Elec       q    Type
REMARK                         _______ _______ _______ _____ _____    ______ ____
ROOT
ATOM      1  O   UNL     1      36.619  51.592  42.069  0.00  0.00    +0.000 OA
ATOM      2  N   UNL     1      36.257  53.838  42.271  0.00  0.00    +0.000 N 
ATOM      3  N   UNL     1      36.912  56.163  43.657  0.00  0.00    +0.000 N 
ATOM      4  N   UNL     1      37.069  55.234  45.620  0.00  0.00    +0.000 NA
ATOM      5  N   UNL     1      37.452  56.548  45.728  0.00  0.00    +0.000 NA
ATOM      6  C   UNL     1      36.238  53.718  43.764  0.00  0.00    +0.000 C 
ATOM      7  C   UNL     1      35.835  55.129  41.717  0.00  0.00    +0.000 C 
ATOM      8  C   UNL     1      36.732  55.005  44.370  0.00  0.00    +0.000 A 
ATOM      9  C   UNL     1      36.709  56.263  42.230  0.00  0.00    +0.000 C 
ATOM     10  C   UNL     1      36.442  52.684  41.524  0.00  0.00    +0.000 C 
ATOM     11  C   UNL     1      37.368  57.111  44.535  0.00  0.00    +0.000 A 
ENDROOT
BRANCH  11  15
ATOM     12  F   UNL     1      38.110  59.240  45.257  0.00  0.00    +0.000 F 
ATOM     13  F   UNL     1      36.633  59.188  43.669  0.00  0.00    +0.000 F 
ATOM     14  F   UNL     1      38.697  58.591  43.270  0.00  0.00    +0.000 F 
ATOM     15  C   UNL     1      37.694  58.517  44.181  0.00  0.00    +0.000 C 
ENDBRANCH  11  15
BRANCH   6  16
ATOM     16  C   UNL     1      34.819  53.346  44.281  0.00  0.00    +0.000 C 
BRANCH  16  17
ATOM     17  C   UNL     1      34.694  53.042  45.762  0.00  0.00    +0.000 A 
ATOM     18  C   UNL     1      34.958  51.750  46.246  0.00  0.00    +0.000 A 
ATOM     19  C   UNL     1      34.336  54.040  46.681  0.00  0.00    +0.000 A 
ATOM     20  C   UNL     1      34.857  51.442  47.612  0.00  0.00    +0.000 A 
ATOM     21  C   UNL     1      34.220  53.758  48.054  0.00  0.00    +0.000 A 
ATOM     22  C   UNL     1      34.473  52.452  48.507  0.00  0.00    +0.000 A 
BRANCH  21  26
ATOM     23  F   UNL     1      32.497  55.014  49.174  0.00  0.00    +0.000 F 
ATOM     24  F   UNL     1      34.303  54.570  50.304  0.00  0.00    +0.000 F 
ATOM     25  F   UNL     1      34.352  56.048  48.712  0.00  0.00    +0.000 F 
ATOM     26  C   UNL     1      33.840  54.830  49.050  0.00  0.00    +0.000 C 
ENDBRANCH  21  26
BRANCH  20  30
ATOM     27  F   UNL     1      36.380  49.583  47.743  0.00  0.00    +0.000 F 
ATOM     28  F   UNL     1      35.154  49.995  49.487  0.00  0.00    +0.000 F 
ATOM     29  F   UNL     1      34.254  49.125  47.711  0.00  0.00    +0.000 F 
ATOM     30  C   UNL     1      35.160  50.052  48.125  0.00  0.00    +0.000 C 
ENDBRANCH  20  30
ENDBRANCH  16  17
ENDBRANCH   6  16
BRANCH  10  31
ATOM     31  C   UNL     1      36.485  52.764  40.001  0.00  0.00    +0.000 C 
BRANCH  31  32
ATOM     32  C   UNL     1      36.760  51.398  39.339  0.00  0.00    +0.000 C 
BRANCH  32  33
ATOM     33  N   UNL     1      38.090  50.936  39.779  0.00  0.00    +0.000 NA
ATOM     34  H   UNL     1      38.591  51.704  40.229  0.00  0.00    +0.000 HD
ATOM     35  H   UNL     1      38.655  50.695  38.963  0.00  0.00    +0.000 HD
ENDBRANCH  32  33
BRANCH  32  36
ATOM     36  C   UNL     1      36.669  51.511  37.796  0.00  0.00    +0.000 C 
BRANCH  36  40
ATOM     37  F   UNL     1      38.245  49.720  36.236  0.00  0.00    +0.000 F 
ATOM     38  F   UNL     1      32.938  48.571  36.660  0.00  0.00    +0.000 F 
ATOM     39  F   UNL     1      34.612  46.867  35.323  0.00  0.00    +0.000 F 
ATOM     40  C   UNL     1      36.103  50.323  37.052  0.00  0.00    +0.000 A 
ATOM     41  C   UNL     1      36.935  49.452  36.338  0.00  0.00    +0.000 A 
ATOM     42  C   UNL     1      34.736  50.017  37.142  0.00  0.00    +0.000 A 
ATOM     43  C   UNL     1      34.241  48.857  36.549  0.00  0.00    +0.000 A 
ATOM     44  C   UNL     1      36.443  48.292  35.744  0.00  0.00    +0.000 A 
ATOM     45  C   UNL     1      35.091  47.996  35.864  0.00  0.00    +0.000 A 
ENDBRANCH  36  40
ENDBRANCH  32  36
ENDBRANCH  31  32
ENDBRANCH  10  31
TORSDOF 10
ENDMDL
MODEL 5
REMARK VINA RESULT:      -9.2      2.258      3.614
REMARK  Name = 24777177
REMARK  10 active torsions:
REMARK  status: ('A' for Active; 'I' for Inactive)
REMARK    1  A    between atoms: N_18  and  C_28
REMARK    2  A    between atoms: C_19  and  C_23
REMARK    3  A    between atoms: C_23  and  C_27
REMARK    4  A    between atoms: C_24  and  C_25
REMARK    5  A    between atoms: C_25  and  C_28
REMARK    6  A    between atoms: C_26  and  C_32
REMARK    7  A    between atoms: C_28  and  C_29
REMARK    8  A    between atoms: C_29  and  C_35
REMARK    9  A    between atoms: C_33  and  C_38
REMARK   10  A    between atoms: C_34  and  C_37
REMARK                            x       y       z     vdW  Elec       q    Type
REMARK                         _______ _______ _______ _____ _____    ______ ____
ROOT
ATOM      1  O   UNL     1      37.017  50.270  41.032  0.00  0.00    +0.000 OA
ATOM      2  N   UNL     1      37.021  52.221  42.220  0.00  0.00    +0.000 N 
ATOM      3  N   UNL     1      38.148  53.622  44.347  0.00  0.00    +0.000 N 
ATOM      4  N   UNL     1      38.345  51.913  45.681  0.00  0.00    +0.000 NA
ATOM      5  N   UNL     1      38.932  53.002  46.278  0.00  0.00    +0.000 NA
ATOM      6  C   UNL     1      37.123  51.457  43.505  0.00  0.00    +0.000 C 
ATOM      7  C   UNL     1      36.750  53.657  42.337  0.00  0.00    +0.000 C 
ATOM      8  C   UNL     1      37.862  52.292  44.518  0.00  0.00    +0.000 A 
ATOM      9  C   UNL     1      37.831  54.360  43.145  0.00  0.00    +0.000 C 
ATOM     10  C   UNL     1      36.957  51.502  41.035  0.00  0.00    +0.000 C 
ATOM     11  C   UNL     1      38.823  54.038  45.463  0.00  0.00    +0.000 A 
ENDROOT
BRANCH  11  15
ATOM     12  F   UNL     1      40.044  55.522  46.848  0.00  0.00    +0.000 F 
ATOM     13  F   UNL     1      38.326  56.329  45.795  0.00  0.00    +0.000 F 
ATOM     14  F   UNL     1      40.151  55.831  44.701  0.00  0.00    +0.000 F 
ATOM     15  C   UNL     1      39.325  55.417  45.696  0.00  0.00    +0.000 C 
ENDBRANCH  11  15
BRANCH   6  16
ATOM     16  C   UNL     1      35.719  51.034  44.022  0.00  0.00    +0.000 C 
BRANCH  16  17
ATOM     17  C   UNL     1      35.395  51.376  45.465  0.00  0.00    +0.000 A 
ATOM     18  C   UNL     1      34.956  52.665  45.807  0.00  0.00    +0.000 A 
ATOM     19  C   UNL     1      35.502  50.414  46.481  0.00  0.00    +0.000 A 
ATOM     20  C   UNL     1      34.642  53.006  47.133  0.00  0.00    +0.000 A 
ATOM     21  C   UNL     1      35.201  50.730  47.818  0.00  0.00    +0.000 A 
ATOM     22  C   UNL     1      34.781  52.034  48.133  0.00  0.00    +0.000 A 
BRANCH  21  26
ATOM     23  F   UNL     1      34.660  50.043  50.061  0.00  0.00    +0.000 F 
ATOM     24  F   UNL     1      34.805  48.486  48.548  0.00  0.00    +0.000 F 
ATOM     25  F   UNL     1      36.602  49.465  49.278  0.00  0.00    +0.000 F 
ATOM     26  C   UNL     1      35.309  49.697  48.916  0.00  0.00    +0.000 C 
ENDBRANCH  21  26
BRANCH  20  30
ATOM     27  F   UNL     1      33.489  55.015  46.475  0.00  0.00    +0.000 F 
ATOM     28  F   UNL     1      33.289  54.379  48.542  0.00  0.00    +0.000 F 
ATOM     29  F   UNL     1      35.162  55.234  47.848  0.00  0.00    +0.000 F 
ATOM     30  C   UNL     1      34.154  54.394  47.489  0.00  0.00    +0.000 C 
ENDBRANCH  20  30
ENDBRANCH  16  17
ENDBRANCH   6  16
BRANCH  10  31
ATOM     31  C   UNL     1      36.870  52.240  39.703  0.00  0.00    +0.000 C 
BRANCH  31  32
ATOM     32  C   UNL     1      37.435  51.418  38.527  0.00  0.00    +0.000 C 
BRANCH  32  33
ATOM     33  N   UNL     1      38.800  51.900  38.246  0.00  0.00    +0.000 NA
ATOM     34  H   UNL     1      39.340  51.934  39.113  0.00  0.00    +0.000 HD
ATOM     35  H   UNL     1      38.761  52.869  37.923  0.00  0.00    +0.000 HD
ENDBRANCH  32  33
BRANCH  32  36
ATOM     36  C   UNL     1      36.514  51.536  37.287  0.00  0.00    +0.000 C 
BRANCH  36  40
ATOM     37  F   UNL     1      37.999  49.539  35.895  0.00  0.00    +0.000 F 
ATOM     38  F   UNL     1      32.738  48.473  36.821  0.00  0.00    +0.000 F 
ATOM     39  F   UNL     1      34.334  46.594  35.631  0.00  0.00    +0.000 F 
ATOM     40  C   UNL     1      35.910  50.256  36.756  0.00  0.00    +0.000 A 
ATOM     41  C   UNL     1      36.700  49.291  36.118  0.00  0.00    +0.000 A 
ATOM     42  C   UNL     1      34.553  49.968  36.976  0.00  0.00    +0.000 A 
ATOM     43  C   UNL     1      34.029  48.738  36.586  0.00  0.00    +0.000 A 
ATOM     44  C   UNL     1      36.178  48.060  35.727  0.00  0.00    +0.000 A 
ATOM     45  C   UNL     1      34.839  47.787  35.975  0.00  0.00    +0.000 A 
ENDBRANCH  36  40
ENDBRANCH  32  36
ENDBRANCH  31  32
ENDBRANCH  10  31
TORSDOF 10
ENDMDL
MODEL 6
REMARK VINA RESULT:      -9.2      3.501      8.519
REMARK  Name = 24777177
REMARK  10 active torsions:
REMARK  status: ('A' for Active; 'I' for Inactive)
REMARK    1  A    between atoms: N_18  and  C_28
REMARK    2  A    between atoms: C_19  and  C_23
REMARK    3  A    between atoms: C_23  and  C_27
REMARK    4  A    between atoms: C_24  and  C_25
REMARK    5  A    between atoms: C_25  and  C_28
REMARK    6  A    between atoms: C_26  and  C_32
REMARK    7  A    between atoms: C_28  and  C_29
REMARK    8  A    between atoms: C_29  and  C_35
REMARK    9  A    between atoms: C_33  and  C_38
REMARK   10  A    between atoms: C_34  and  C_37
REMARK                            x       y       z     vdW  Elec       q    Type
REMARK                         _______ _______ _______ _____ _____    ______ ____
ROOT
ATOM      1  O   UNL     1      40.174  48.447  43.195  0.00  0.00    +0.000 OA
ATOM      2  N   UNL     1      39.221  50.450  43.742  0.00  0.00    +0.000 N 
ATOM      3  N   UNL     1      37.031  52.133  43.391  0.00  0.00    +0.000 N 
ATOM      4  N   UNL     1      36.726  51.691  41.281  0.00  0.00    +0.000 NA
ATOM      5  N   UNL     1      35.706  52.506  41.707  0.00  0.00    +0.000 NA
ATOM      6  C   UNL     1      38.795  50.654  42.321  0.00  0.00    +0.000 C 
ATOM      7  C   UNL     1      39.070  51.601  44.637  0.00  0.00    +0.000 C 
ATOM      8  C   UNL     1      37.533  51.476  42.297  0.00  0.00    +0.000 A 
ATOM      9  C   UNL     1      37.620  52.059  44.708  0.00  0.00    +0.000 C 
ATOM     10  C   UNL     1      39.930  49.299  44.054  0.00  0.00    +0.000 C 
ATOM     11  C   UNL     1      35.883  52.765  42.991  0.00  0.00    +0.000 A 
ENDROOT
BRANCH  11  15
ATOM     12  F   UNL     1      35.693  54.631  44.438  0.00  0.00    +0.000 F 
ATOM     13  F   UNL     1      34.476  52.892  44.891  0.00  0.00    +0.000 F 
ATOM     14  F   UNL     1      33.989  54.158  43.177  0.00  0.00    +0.000 F 
ATOM     15  C   UNL     1      35.016  53.597  43.866  0.00  0.00    +0.000 C 
ENDBRANCH  11  15
BRANCH   6  16
ATOM     16  C   UNL     1      39.926  51.312  41.481  0.00  0.00    +0.000 C 
BRANCH  16  17
ATOM     17  C   UNL     1      40.525  50.471  40.369  0.00  0.00    +0.000 A 
ATOM     18  C   UNL     1      41.367  49.388  40.675  0.00  0.00    +0.000 A 
ATOM     19  C   UNL     1      40.238  50.736  39.022  0.00  0.00    +0.000 A 
ATOM     20  C   UNL     1      41.929  48.588  39.667  0.00  0.00    +0.000 A 
ATOM     21  C   UNL     1      40.794  49.955  37.992  0.00  0.00    +0.000 A 
ATOM     22  C   UNL     1      41.646  48.890  38.327  0.00  0.00    +0.000 A 
BRANCH  21  26
ATOM     23  F   UNL     1      41.386  49.696  35.672  0.00  0.00    +0.000 F 
ATOM     24  F   UNL     1      39.266  49.752  36.160  0.00  0.00    +0.000 F 
ATOM     25  F   UNL     1      40.455  51.567  36.265  0.00  0.00    +0.000 F 
ATOM     26  C   UNL     1      40.484  50.233  36.539  0.00  0.00    +0.000 C 
ENDBRANCH  21  26
BRANCH  20  30
ATOM     27  F   UNL     1      42.642  46.339  39.190  0.00  0.00    +0.000 F 
ATOM     28  F   UNL     1      44.143  47.732  39.913  0.00  0.00    +0.000 F 
ATOM     29  F   UNL     1      42.637  46.959  41.275  0.00  0.00    +0.000 F 
ATOM     30  C   UNL     1      42.821  47.415  40.006  0.00  0.00    +0.000 C 
ENDBRANCH  20  30
ENDBRANCH  16  17
ENDBRANCH   6  16
BRANCH  10  31
ATOM     31  C   UNL     1      40.369  49.044  45.492  0.00  0.00    +0.000 C 
BRANCH  31  32
ATOM     32  C   UNL     1      39.620  47.864  46.145  0.00  0.00    +0.000 C 
BRANCH  32  33
ATOM     33  N   UNL     1      40.285  46.615  45.732  0.00  0.00    +0.000 NA
ATOM     34  H   UNL     1      39.729  45.812  46.031  0.00  0.00    +0.000 HD
ATOM     35  H   UNL     1      41.174  46.519  46.227  0.00  0.00    +0.000 HD
ENDBRANCH  32  33
BRANCH  32  36
ATOM     36  C   UNL     1      38.123  47.881  45.746  0.00  0.00    +0.000 C 
BRANCH  36  40
ATOM     37  F   UNL     1      35.285  47.659  45.585  0.00  0.00    +0.000 F 
ATOM     38  F   UNL     1      37.275  50.651  49.679  0.00  0.00    +0.000 F 
ATOM     39  F   UNL     1      34.580  50.217  49.475  0.00  0.00    +0.000 F 
ATOM     40  C   UNL     1      37.170  48.586  46.684  0.00  0.00    +0.000 A 
ATOM     41  C   UNL     1      35.785  48.403  46.583  0.00  0.00    +0.000 A 
ATOM     42  C   UNL     1      37.664  49.370  47.739  0.00  0.00    +0.000 A 
ATOM     43  C   UNL     1      36.785  49.922  48.668  0.00  0.00    +0.000 A 
ATOM     44  C   UNL     1      34.904  48.955  47.511  0.00  0.00    +0.000 A 
ATOM     45  C   UNL     1      35.415  49.707  48.559  0.00  0.00    +0.000 A 
ENDBRANCH  36  40
ENDBRANCH  32  36
ENDBRANCH  31  32
ENDBRANCH  10  31
TORSDOF 10
ENDMDL
MODEL 7
REMARK VINA RESULT:      -9.1      2.828      7.759
REMARK  Name = 24777177
REMARK  10 active torsions:
REMARK  status: ('A' for Active; 'I' for Inactive)
REMARK    1  A    between atoms: N_18  and  C_28
REMARK    2  A    between atoms: C_19  and  C_23
REMARK    3  A    between atoms: C_23  and  C_27
REMARK    4  A    between atoms: C_24  and  C_25
REMARK    5  A    between atoms: C_25  and  C_28
REMARK    6  A    between atoms: C_26  and  C_32
REMARK    7  A    between atoms: C_28  and  C_29
REMARK    8  A    between atoms: C_29  and  C_35
REMARK    9  A    between atoms: C_33  and  C_38
REMARK   10  A    between atoms: C_34  and  C_37
REMARK                            x       y       z     vdW  Elec       q    Type
REMARK                         _______ _______ _______ _____ _____    ______ ____
ROOT
ATOM      1  O   UNL     1      39.135  53.448  42.331  0.00  0.00    +0.000 OA
ATOM      2  N   UNL     1      39.321  51.907  40.656  0.00  0.00    +0.000 N 
ATOM      3  N   UNL     1      38.307  51.016  38.220  0.00  0.00    +0.000 N 
ATOM      4  N   UNL     1      36.213  51.397  38.681  0.00  0.00    +0.000 NA
ATOM      5  N   UNL     1      36.305  50.990  37.372  0.00  0.00    +0.000 NA
ATOM      6  C   UNL     1      37.832  51.764  40.599  0.00  0.00    +0.000 C 
ATOM      7  C   UNL     1      40.098  50.929  39.887  0.00  0.00    +0.000 C 
ATOM      8  C   UNL     1      37.423  51.401  39.196  0.00  0.00    +0.000 A 
ATOM      9  C   UNL     1      39.739  50.977  38.409  0.00  0.00    +0.000 C 
ATOM     10  C   UNL     1      39.860  52.781  41.589  0.00  0.00    +0.000 C 
ATOM     11  C   UNL     1      37.577  50.770  37.087  0.00  0.00    +0.000 A 
ENDROOT
BRANCH  11  15
ATOM     12  F   UNL     1      38.361  51.366  34.934  0.00  0.00    +0.000 F 
ATOM     13  F   UNL     1      37.324  49.469  35.125  0.00  0.00    +0.000 F 
ATOM     14  F   UNL     1      39.340  49.707  35.937  0.00  0.00    +0.000 F 
ATOM     15  C   UNL     1      38.141  50.327  35.786  0.00  0.00    +0.000 C 
ENDBRANCH  11  15
BRANCH   6  16
ATOM     16  C   UNL     1      37.326  50.719  41.634  0.00  0.00    +0.000 C 
BRANCH  16  17
ATOM     17  C   UNL     1      36.597  51.262  42.849  0.00  0.00    +0.000 A 
ATOM     18  C   UNL     1      36.046  52.554  42.826  0.00  0.00    +0.000 A 
ATOM     19  C   UNL     1      36.436  50.486  44.006  0.00  0.00    +0.000 A 
ATOM     20  C   UNL     1      35.359  53.079  43.932  0.00  0.00    +0.000 A 
ATOM     21  C   UNL     1      35.760  50.991  45.133  0.00  0.00    +0.000 A 
ATOM     22  C   UNL     1      35.235  52.293  45.087  0.00  0.00    +0.000 A 
BRANCH  21  26
ATOM     23  F   UNL     1      34.461  50.469  47.092  0.00  0.00    +0.000 F 
ATOM     24  F   UNL     1      35.497  48.824  46.115  0.00  0.00    +0.000 F 
ATOM     25  F   UNL     1      36.621  50.298  47.248  0.00  0.00    +0.000 F 
ATOM     26  C   UNL     1      35.579  50.157  46.381  0.00  0.00    +0.000 C 
ENDBRANCH  21  26
BRANCH  20  30
ATOM     27  F   UNL     1      33.662  54.608  44.693  0.00  0.00    +0.000 F 
ATOM     28  F   UNL     1      35.637  55.421  44.299  0.00  0.00    +0.000 F 
ATOM     29  F   UNL     1      34.357  54.833  42.644  0.00  0.00    +0.000 F 
ATOM     30  C   UNL     1      34.755  54.465  43.892  0.00  0.00    +0.000 C 
ENDBRANCH  20  30
ENDBRANCH  16  17
ENDBRANCH   6  16
BRANCH  10  31
ATOM     31  C   UNL     1      41.372  52.969  41.669  0.00  0.00    +0.000 C 
BRANCH  31  32
ATOM     32  C   UNL     1      41.954  52.551  43.035  0.00  0.00    +0.000 C 
BRANCH  32  33
ATOM     33  N   UNL     1      43.269  53.199  43.190  0.00  0.00    +0.000 NA
ATOM     34  H   UNL     1      43.868  52.959  42.398  0.00  0.00    +0.000 HD
ATOM     35  H   UNL     1      43.746  52.815  44.008  0.00  0.00    +0.000 HD
ENDBRANCH  32  33
BRANCH  32  36
ATOM     36  C   UNL     1      42.056  51.007  43.134  0.00  0.00    +0.000 C 
BRANCH  36  40
ATOM     37  F   UNL     1      40.621  48.715  42.233  0.00  0.00    +0.000 F 
ATOM     38  F   UNL     1      39.567  50.424  47.296  0.00  0.00    +0.000 F 
ATOM     39  F   UNL     1      38.383  48.150  46.337  0.00  0.00    +0.000 F 
ATOM     40  C   UNL     1      41.001  50.300  43.954  0.00  0.00    +0.000 A 
ATOM     41  C   UNL     1      40.360  49.150  43.474  0.00  0.00    +0.000 A 
ATOM     42  C   UNL     1      40.709  50.733  45.257  0.00  0.00    +0.000 A 
ATOM     43  C   UNL     1      39.820  50.008  46.049  0.00  0.00    +0.000 A 
ATOM     44  C   UNL     1      39.471  48.425  44.264  0.00  0.00    +0.000 A 
ATOM     45  C   UNL     1      39.213  48.857  45.558  0.00  0.00    +0.000 A 
ENDBRANCH  36  40
ENDBRANCH  32  36
ENDBRANCH  31  32
ENDBRANCH  10  31
TORSDOF 10
ENDMDL
MODEL 8
REMARK VINA RESULT:      -9.0      6.341      9.478
REMARK  Name = 24777177
REMARK  10 active torsions:
REMARK  status: ('A' for Active; 'I' for Inactive)
REMARK    1  A    between atoms: N_18  and  C_28
REMARK    2  A    between atoms: C_19  and  C_23
REMARK    3  A    between atoms: C_23  and  C_27
REMARK    4  A    between atoms: C_24  and  C_25
REMARK    5  A    between atoms: C_25  and  C_28
REMARK    6  A    between atoms: C_26  and  C_32
REMARK    7  A    between atoms: C_28  and  C_29
REMARK    8  A    between atoms: C_29  and  C_35
REMARK    9  A    between atoms: C_33  and  C_38
REMARK   10  A    between atoms: C_34  and  C_37
REMARK                            x       y       z     vdW  Elec       q    Type
REMARK                         _______ _______ _______ _____ _____    ______ ____
ROOT
ATOM      1  O   UNL     1      35.739  52.070  51.167  0.00  0.00    +0.000 OA
ATOM      2  N   UNL     1      37.988  52.088  51.568  0.00  0.00    +0.000 N 
ATOM      3  N   UNL     1      40.140  53.546  52.565  0.00  0.00    +0.000 N 
ATOM      4  N   UNL     1      39.480  55.483  51.821  0.00  0.00    +0.000 NA
ATOM      5  N   UNL     1      40.603  55.671  52.590  0.00  0.00    +0.000 NA
ATOM      6  C   UNL     1      38.080  53.501  51.082  0.00  0.00    +0.000 C 
ATOM      7  C   UNL     1      39.259  51.395  51.798  0.00  0.00    +0.000 C 
ATOM      8  C   UNL     1      39.208  54.197  51.798  0.00  0.00    +0.000 A 
ATOM      9  C   UNL     1      40.109  52.126  52.828  0.00  0.00    +0.000 C 
ATOM     10  C   UNL     1      36.747  51.468  51.545  0.00  0.00    +0.000 C 
ATOM     11  C   UNL     1      40.998  54.497  53.052  0.00  0.00    +0.000 A 
ENDROOT
BRANCH  11  15
ATOM     12  F   UNL     1      41.805  53.608  55.093  0.00  0.00    +0.000 F 
ATOM     13  F   UNL     1      42.817  55.357  54.300  0.00  0.00    +0.000 F 
ATOM     14  F   UNL     1      43.071  53.410  53.339  0.00  0.00    +0.000 F 
ATOM     15  C   UNL     1      42.163  54.226  53.933  0.00  0.00    +0.000 C 
ENDBRANCH  11  15
BRANCH   6  16
ATOM     16  C   UNL     1      38.259  53.556  49.538  0.00  0.00    +0.000 C 
BRANCH  16  17
ATOM     17  C   UNL     1      36.997  53.728  48.713  0.00  0.00    +0.000 A 
ATOM     18  C   UNL     1      36.719  52.853  47.651  0.00  0.00    +0.000 A 
ATOM     19  C   UNL     1      36.072  54.743  49.003  0.00  0.00    +0.000 A 
ATOM     20  C   UNL     1      35.555  52.984  46.876  0.00  0.00    +0.000 A 
ATOM     21  C   UNL     1      34.902  54.902  48.238  0.00  0.00    +0.000 A 
ATOM     22  C   UNL     1      34.660  54.022  47.170  0.00  0.00    +0.000 A 
BRANCH  21  26
ATOM     23  F   UNL     1      33.831  56.962  47.599  0.00  0.00    +0.000 F 
ATOM     24  F   UNL     1      32.632  55.511  48.692  0.00  0.00    +0.000 F 
ATOM     25  F   UNL     1      34.185  56.633  49.717  0.00  0.00    +0.000 F 
ATOM     26  C   UNL     1      33.900  55.990  48.550  0.00  0.00    +0.000 C 
ENDBRANCH  21  26
BRANCH  20  30
ATOM     27  F   UNL     1      34.596  50.902  46.139  0.00  0.00    +0.000 F 
ATOM     28  F   UNL     1      34.474  52.594  44.783  0.00  0.00    +0.000 F 
ATOM     29  F   UNL     1      36.378  51.597  45.103  0.00  0.00    +0.000 F 
ATOM     30  C   UNL     1      35.257  52.026  45.744  0.00  0.00    +0.000 C 
ENDBRANCH  20  30
ENDBRANCH  16  17
ENDBRANCH   6  16
BRANCH  10  31
ATOM     31  C   UNL     1      36.605  50.034  52.047  0.00  0.00    +0.000 C 
BRANCH  31  32
ATOM     32  C   UNL     1      36.556  49.003  50.901  0.00  0.00    +0.000 C 
BRANCH  32  33
ATOM     33  N   UNL     1      37.558  47.958  51.183  0.00  0.00    +0.000 NA
ATOM     34  H   UNL     1      38.473  48.253  50.838  0.00  0.00    +0.000 HD
ATOM     35  H   UNL     1      37.334  47.116  50.650  0.00  0.00    +0.000 HD
ENDBRANCH  32  33
BRANCH  32  36
ATOM     36  C   UNL     1      36.810  49.691  49.536  0.00  0.00    +0.000 C 
BRANCH  36  40
ATOM     37  F   UNL     1      38.146  49.783  47.019  0.00  0.00    +0.000 F 
ATOM     38  F   UNL     1      33.729  46.610  47.328  0.00  0.00    +0.000 F 
ATOM     39  F   UNL     1      35.209  46.689  45.026  0.00  0.00    +0.000 F 
ATOM     40  C   UNL     1      36.327  48.966  48.301  0.00  0.00    +0.000 A 
ATOM     41  C   UNL     1      37.051  49.013  47.102  0.00  0.00    +0.000 A 
ATOM     42  C   UNL     1      35.184  48.151  48.359  0.00  0.00    +0.000 A 
ATOM     43  C   UNL     1      34.810  47.396  47.249  0.00  0.00    +0.000 A 
ATOM     44  C   UNL     1      36.678  48.259  45.992  0.00  0.00    +0.000 A 
ATOM     45  C   UNL     1      35.559  47.442  46.078  0.00  0.00    +0.000 A 
ENDBRANCH  36  40
ENDBRANCH  32  36
ENDBRANCH  31  32
ENDBRANCH  10  31
TORSDOF 10
ENDMDL
MODEL 9
REMARK VINA RESULT:      -9.0      6.354      9.633
REMARK  Name = 24777177
REMARK  10 active torsions:
REMARK  status: ('A' for Active; 'I' for Inactive)
REMARK    1  A    between atoms: N_18  and  C_28
REMARK    2  A    between atoms: C_19  and  C_23
REMARK    3  A    between atoms: C_23  and  C_27
REMARK    4  A    between atoms: C_24  and  C_25
REMARK    5  A    between atoms: C_25  and  C_28
REMARK    6  A    between atoms: C_26  and  C_32
REMARK    7  A    between atoms: C_28  and  C_29
REMARK    8  A    between atoms: C_29  and  C_35
REMARK    9  A    between atoms: C_33  and  C_38
REMARK   10  A    between atoms: C_34  and  C_37
REMARK                            x       y       z     vdW  Elec       q    Type
REMARK                         _______ _______ _______ _____ _____    ______ ____
ROOT
ATOM      1  O   UNL     1      35.744  52.125  51.199  0.00  0.00    +0.000 OA
ATOM      2  N   UNL     1      37.997  52.116  51.574  0.00  0.00    +0.000 N 
ATOM      3  N   UNL     1      40.177  53.548  52.550  0.00  0.00    +0.000 N 
ATOM      4  N   UNL     1      39.530  55.494  51.820  0.00  0.00    +0.000 NA
ATOM      5  N   UNL     1      40.664  55.667  52.576  0.00  0.00    +0.000 NA
ATOM      6  C   UNL     1      38.100  53.530  51.091  0.00  0.00    +0.000 C 
ATOM      7  C   UNL     1      39.264  51.408  51.788  0.00  0.00    +0.000 C 
ATOM      8  C   UNL     1      39.244  54.211  51.796  0.00  0.00    +0.000 A 
ATOM      9  C   UNL     1      40.133  52.127  52.809  0.00  0.00    +0.000 C 
ATOM     10  C   UNL     1      36.749  51.510  51.563  0.00  0.00    +0.000 C 
ATOM     11  C   UNL     1      41.051  54.487  53.030  0.00  0.00    +0.000 A 
ENDROOT
BRANCH  11  15
ATOM     12  F   UNL     1      42.950  55.319  54.174  0.00  0.00    +0.000 F 
ATOM     13  F   UNL     1      43.090  53.322  53.334  0.00  0.00    +0.000 F 
ATOM     14  F   UNL     1      41.853  53.689  55.099  0.00  0.00    +0.000 F 
ATOM     15  C   UNL     1      42.223  54.201  53.897  0.00  0.00    +0.000 C 
ENDBRANCH  11  15
BRANCH   6  16
ATOM     16  C   UNL     1      38.261  53.587  49.546  0.00  0.00    +0.000 C 
BRANCH  16  17
ATOM     17  C   UNL     1      36.986  53.714  48.733  0.00  0.00    +0.000 A 
ATOM     18  C   UNL     1      36.058  54.728  49.022  0.00  0.00    +0.000 A 
ATOM     19  C   UNL     1      36.714  52.843  47.667  0.00  0.00    +0.000 A 
ATOM     20  C   UNL     1      34.874  54.873  48.282  0.00  0.00    +0.000 A 
ATOM     21  C   UNL     1      35.532  52.960  46.913  0.00  0.00    +0.000 A 
ATOM     22  C   UNL     1      34.614  53.974  47.237  0.00  0.00    +0.000 A 
BRANCH  21  26
ATOM     23  F   UNL     1      34.585  50.891  46.126  0.00  0.00    +0.000 F 
ATOM     24  F   UNL     1      34.468  52.611  44.798  0.00  0.00    +0.000 F 
ATOM     25  F   UNL     1      36.372  51.619  45.128  0.00  0.00    +0.000 F 
ATOM     26  C   UNL     1      35.237  52.029  45.760  0.00  0.00    +0.000 C 
ENDBRANCH  21  26
BRANCH  20  30
ATOM     27  F   UNL     1      33.787  56.911  47.602  0.00  0.00    +0.000 F 
ATOM     28  F   UNL     1      32.626  55.503  48.779  0.00  0.00    +0.000 F 
ATOM     29  F   UNL     1      34.200  56.665  49.723  0.00  0.00    +0.000 F 
ATOM     30  C   UNL     1      33.889  55.979  48.591  0.00  0.00    +0.000 C 
ENDBRANCH  20  30
ENDBRANCH  16  17
ENDBRANCH   6  16
BRANCH  10  31
ATOM     31  C   UNL     1      36.597  50.077  52.063  0.00  0.00    +0.000 C 
BRANCH  31  32
ATOM     32  C   UNL     1      36.466  49.055  50.914  0.00  0.00    +0.000 C 
BRANCH  32  33
ATOM     33  N   UNL     1      37.385  47.936  51.191  0.00  0.00    +0.000 NA
ATOM     34  H   UNL     1      37.127  47.487  52.072  0.00  0.00    +0.000 HD
ATOM     35  H   UNL     1      38.328  48.297  51.345  0.00  0.00    +0.000 HD
ENDBRANCH  32  33
BRANCH  32  36
ATOM     36  C   UNL     1      36.768  49.726  49.550  0.00  0.00    +0.000 C 
BRANCH  36  40
ATOM     37  F   UNL     1      38.151  49.804  47.059  0.00  0.00    +0.000 F 
ATOM     38  F   UNL     1      33.721  46.644  47.297  0.00  0.00    +0.000 F 
ATOM     39  F   UNL     1      35.244  46.710  45.024  0.00  0.00    +0.000 F 
ATOM     40  C   UNL     1      36.306  48.998  48.309  0.00  0.00    +0.000 A 
ATOM     41  C   UNL     1      37.053  49.037  47.125  0.00  0.00    +0.000 A 
ATOM     42  C   UNL     1      35.160  48.186  48.349  0.00  0.00    +0.000 A 
ATOM     43  C   UNL     1      34.805  47.427  47.236  0.00  0.00    +0.000 A 
ATOM     44  C   UNL     1      36.699  48.279  46.011  0.00  0.00    +0.000 A 
ATOM     45  C   UNL     1      35.576  47.466  46.079  0.00  0.00    +0.000 A 
ENDBRANCH  36  40
ENDBRANCH  32  36
ENDBRANCH  31  32
ENDBRANCH  10  31
TORSDOF 10
ENDMDL
