@<TRIPOS>MOLECULE
24776814
 45 48 0 0 0
SMALL
GASTEIGER

@<TRIPOS>ATOM
      1 O           2.7310   -0.9120    0.5329 O.2     1  UNL1       -0.2748
      2 N           2.5548    1.0601   -0.7336 N.am    1  UNL1       -0.2719
      3 N           2.8302    2.7483   -3.1258 N.ar    1  UNL1       -0.2924
      4 N           4.0249    1.2903   -4.2226 N.ar    1  UNL1       -0.1317
      5 N           3.6717    2.3168   -5.0769 N.ar    1  UNL1       -0.1249
      6 C           3.3194    0.6660   -1.8715 C.3     1  UNL1        0.1383
      7 C           2.0776    2.3210   -0.8730 C.3     1  UNL1        0.1183
      8 C           3.4385    1.5010   -3.0579 C.ar    1  UNL1        0.1617
      9 C           2.1565    3.2800   -2.0026 C.3     1  UNL1        0.1301
     10 C           2.2815    0.2083    0.3393 C.2     1  UNL1        0.2273
     11 C           2.8846    3.1523   -4.4195 C.ar    1  UNL1        0.2383
     12 F           1.3703    4.9105   -3.9714 F       1  UNL1       -0.1632
     13 F           2.8548    5.2294   -5.5246 F       1  UNL1       -0.1632
     14 F           1.1835    3.8629   -5.8614 F       1  UNL1       -0.1632
     15 C           2.0886    4.2777   -4.9382 C.3     1  UNL1        0.4524
     16 C           4.0654   -0.5480   -1.8511 C.3     1  UNL1        0.0539
     17 C           5.0488   -1.5716   -1.7605 C.2     1  UNL1       -0.0202
     18 C           5.9538   -1.4447   -0.7150 C.2     1  UNL1       -0.0004
     19 C           5.3148   -2.4392   -2.8157 C.2     1  UNL1       -0.0004
     20 C           7.1503   -2.1478   -0.7169 C.2     1  UNL1        0.0711
     21 C           6.4941   -3.1925   -2.8145 C.2     1  UNL1        0.0711
     22 C           7.4126   -3.0297   -1.7671 C.2     1  UNL1        0.0077
     23 F           7.9800   -3.6476   -4.6133 F       1  UNL1       -0.1659
     24 F           5.8857   -4.1232   -4.9401 F       1  UNL1       -0.1659
     25 F           7.0845   -5.3574   -3.6136 F       1  UNL1       -0.1659
     26 C           6.8489   -4.0674   -3.9801 C.3     1  UNL1        0.4186
     27 F           9.2907   -1.2120   -0.3301 F       1  UNL1       -0.1659
     28 F           7.7791   -0.8378    1.1791 F       1  UNL1       -0.1659
     29 F           8.6642   -2.8153    1.0034 F       1  UNL1       -0.1659
     30 C           8.2033   -1.7663    0.2745 C.3     1  UNL1        0.4186
     31 C           1.3119    0.6980    1.2879 C.3     1  UNL1        0.1010
     32 C           0.2814    0.9687    2.2054 C.3     1  UNL1        0.0644
     33 N          -0.0548    2.2986    2.5140 N.3     1  UNL1       -0.3215
     34 H          -0.5131    2.4476    3.4060 H       1  UNL1        0.1188
     35 H           0.6275    3.0128    2.2893 H       1  UNL1        0.1188
     36 C          -0.4071   -0.1001    2.8191 C.3     1  UNL1        0.0447
     37 F          -1.8279   -1.9029    1.1976 F       1  UNL1       -0.2044
     38 F          -0.5481   -3.3765    6.2847 F       1  UNL1       -0.2018
     39 F          -1.8012   -5.1406    4.6137 F       1  UNL1       -0.2017
     40 C          -0.8917   -1.3452    3.3111 C.2     1  UNL1        0.0090
     41 C          -1.5442   -2.2461    2.4620 C.2     1  UNL1        0.1386
     42 C          -0.5646   -1.7237    4.6049 C.2     1  UNL1        0.0300
     43 C          -0.8819   -3.0046    5.0418 C.2     1  UNL1        0.1672
     44 C          -1.8651   -3.5276    2.8974 C.2     1  UNL1        0.0612
     45 C          -1.5211   -3.9008    4.1909 C.2     1  UNL1        0.1696
@<TRIPOS>BOND
     1    28    30    1
     2    29    30    1
     3    27    30    1
     4    30    20    1
     5    12    15    1
     6     5     4   ar
     7     5    11   ar
     8    20    18    1
     9    20    22    2
    10     4     8   ar
    11    15    11    1
    12    15    13    1
    13    15    14    1
    14    18    17    2
    15    11     3   ar
    16    22    21    1
    17     8     3   ar
    18     8     6    1
    19     3     9    1
    20    17    16    1
    21    17    19    1
    22    24    26    1
    23    21    19    2
    24    21    26    1
    25     6    16    1
    26     6     2    1
    27    26    23    1
    28    26    25    1
    29     9     7    1
    30     7     2    1
    31     2    10   am
    32     1    10    2
    33    10    31    1
    34    34    33    1
    35    31    32    1
    36    33    32    1
    37    33    35    1
    38    32    36    1
    39    36    40    1
    40    40    42    2
    41    40    41    1
    42    42    43    1
    43    37    41    1
    44    41    44    2
    45    43    38    1
    46    43    45    2
    47    44    45    1
    48    45    39    1
@<TRIPOS>MOLECULE
24776814
 45 48 0 0 0
SMALL
GASTEIGER

@<TRIPOS>ATOM
      1 O           2.8354    0.8173   -0.5673 O.2     1  UNL1       -0.2748
      2 N           2.8227   -1.0885    0.8175 N.am    1  UNL1       -0.2719
      3 N           3.2028   -2.5602    3.3367 N.ar    1  UNL1       -0.2924
      4 N           4.4184   -1.0010    4.2590 N.ar    1  UNL1       -0.1317
      5 N           4.0948   -1.9465    5.2152 N.ar    1  UNL1       -0.1249
      6 C           3.6792   -0.6129    1.8593 C.3     1  UNL1        0.1383
      7 C           2.3616   -2.3309    1.0865 C.3     1  UNL1        0.1183
      8 C           3.8212   -1.3292    3.1265 C.ar    1  UNL1        0.1617
      9 C           2.4807   -3.1860    2.2948 C.3     1  UNL1        0.1301
     10 C           2.4465   -0.3058   -0.2784 C.2     1  UNL1        0.2273
     11 C           3.3092   -2.8536    4.6583 C.ar    1  UNL1        0.2383
     12 F           1.8515   -4.7010    4.4144 F       1  UNL1       -0.1632
     13 F           3.4056   -4.8352    5.9259 F       1  UNL1       -0.1632
     14 F           1.6912   -3.5147    6.2235 F       1  UNL1       -0.1632
     15 C           2.5776   -3.9639    5.2979 C.3     1  UNL1        0.4524
     16 C           4.3204    0.6566    1.7188 C.3     1  UNL1        0.0539
     17 C           4.8707    1.9499    1.4588 C.2     1  UNL1       -0.0202
     18 C           5.8875    2.0914    0.5193 C.2     1  UNL1       -0.0004
     19 C           4.2279    3.0768    1.9691 C.2     1  UNL1       -0.0004
     20 C           6.2876    3.3611    0.0989 C.2     1  UNL1        0.0711
     21 C           4.6100    4.3530    1.5535 C.2     1  UNL1        0.0711
     22 C           5.6461    4.4867    0.6249 C.2     1  UNL1        0.0077
     23 F           4.5858    6.4809    2.6281 F       1  UNL1       -0.1659
     24 F           3.2646    6.2037    0.9241 F       1  UNL1       -0.1659
     25 F           2.7967    5.2633    2.8241 F       1  UNL1       -0.1659
     26 C           3.8265    5.5552    1.9822 C.3     1  UNL1        0.4186
     27 F           7.7728    2.3357   -1.4754 F       1  UNL1       -0.1659
     28 F           8.4283    4.1837   -0.5399 F       1  UNL1       -0.1659
     29 F           6.8585    4.2213   -2.0440 F       1  UNL1       -0.1659
     30 C           7.3222    3.5189   -0.9729 C.3     1  UNL1        0.4186
     31 C           1.4456   -0.8832   -1.1448 C.3     1  UNL1        0.1010
     32 C           0.4383   -1.2817   -2.0470 C.3     1  UNL1        0.0644
     33 N           0.1235   -2.6476   -2.1816 N.3     1  UNL1       -0.3215
     34 H           0.7889   -3.3088   -1.7984 H       1  UNL1        0.1188
     35 H          -0.2197   -2.9245   -3.0961 H       1  UNL1        0.1188
     36 C          -0.2009   -0.3284   -2.8708 C.3     1  UNL1        0.0447
     37 F           0.4038    0.0107   -5.5872 F       1  UNL1       -0.2044
     38 F          -2.3227    3.9550   -2.9957 F       1  UNL1       -0.2018
     39 F          -1.5366    4.3006   -5.5911 F       1  UNL1       -0.2017
     40 C          -0.6610    0.7948   -3.6170 C.2     1  UNL1        0.0090
     41 C          -0.2907    0.9663   -4.9515 C.2     1  UNL1        0.1386
     42 C          -1.3605    1.8033   -2.9566 C.2     1  UNL1        0.0300
     43 C          -1.6653    2.9779   -3.6346 C.2     1  UNL1        0.1672
     44 C          -0.5923    2.1422   -5.6310 C.2     1  UNL1        0.0612
     45 C          -1.2722    3.1500   -4.9575 C.2     1  UNL1        0.1696
@<TRIPOS>BOND
     1    25    26    1
     2    23    26    1
     3    24    26    1
     4    26    21    1
     5    12    15    1
     6     5     4   ar
     7     5    11   ar
     8    21    19    1
     9    21    22    2
    10     4     8   ar
    11    19    17    2
    12    15    11    1
    13    15    13    1
    14    15    14    1
    15    11     3   ar
    16    22    20    1
    17     8     3   ar
    18     8     6    1
    19     3     9    1
    20    17    16    1
    21    17    18    1
    22    20    18    2
    23    20    30    1
    24    27    30    1
    25     6    16    1
    26     6     2    1
    27    30    29    1
    28    30    28    1
    29     9     7    1
    30     7     2    1
    31     2    10   am
    32     1    10    2
    33    10    31    1
    34    35    33    1
    35    31    32    1
    36    33    32    1
    37    33    34    1
    38    36    32    1
    39    36    40    1
    40    40    42    2
    41    40    41    1
    42    42    43    1
    43    37    41    1
    44    41    44    2
    45    43    38    1
    46    43    45    2
    47    44    45    1
    48    45    39    1
