MODEL 1
REMARK VINA RESULT:      -8.2      0.000      0.000
REMARK  Name = 9836052
REMARK  5 active torsions:
REMARK  status: ('A' for Active; 'I' for Inactive)
REMARK    1  A    between atoms: N_5  and  C_11
REMARK    2  A    between atoms: C_11  and  C_12
REMARK    3  A    between atoms: C_11  and  C_15
REMARK    4  A    between atoms: C_12  and  C_14
REMARK    5  A    between atoms: C_15  and  C_17
REMARK                            x       y       z     vdW  Elec       q    Type
REMARK                         _______ _______ _______ _____ _____    ______ ____
ROOT
ATOM      1  C   UNL     1      38.631  50.886  35.962  0.00  0.00    +0.000 C 
ENDROOT
BRANCH   1   2
ATOM      2  N   UNL     1      38.261  51.410  34.626  0.00  0.00    +0.000 NA
ATOM      3  H   UNL     1      37.647  52.218  34.728  0.00  0.00    +0.000 HD
ATOM      4  H   UNL     1      39.099  51.756  34.158  0.00  0.00    +0.000 HD
ENDBRANCH   1   2
BRANCH   1   5
ATOM      5  C   UNL     1      39.765  51.793  36.481  0.00  0.00    +0.000 C 
BRANCH   5  15
ATOM      6  O   UNL     1      40.684  50.714  38.434  0.00  0.00    +0.000 OA
ATOM      7  N   UNL     1      42.114  51.015  36.668  0.00  0.00    +0.000 N 
ATOM      8  N   UNL     1      44.689  51.825  36.067  0.00  0.00    +0.000 N 
ATOM      9  N   UNL     1      44.276  52.438  34.017  0.00  0.00    +0.000 NA
ATOM     10  N   UNL     1      45.577  52.776  34.328  0.00  0.00    +0.000 NA
ATOM     11  C   UNL     1      43.229  50.366  37.373  0.00  0.00    +0.000 C 
ATOM     12  C   UNL     1      42.367  51.338  35.254  0.00  0.00    +0.000 C 
ATOM     13  C   UNL     1      44.461  51.273  37.384  0.00  0.00    +0.000 C 
ATOM     14  C   UNL     1      43.743  51.874  35.080  0.00  0.00    +0.000 A 
ATOM     15  C   UNL     1      40.869  51.117  37.287  0.00  0.00    +0.000 C 
ATOM     16  C   UNL     1      45.804  52.411  35.569  0.00  0.00    +0.000 A 
ENDBRANCH   5  15
ENDBRANCH   1   5
BRANCH   1  17
ATOM     17  C   UNL     1      37.385  50.871  36.887  0.00  0.00    +0.000 C 
BRANCH  17  19
ATOM     18  F   UNL     1      34.553  51.297  36.995  0.00  0.00    +0.000 F 
ATOM     19  C   UNL     1      36.350  49.807  36.572  0.00  0.00    +0.000 A 
ATOM     20  C   UNL     1      34.979  50.080  36.630  0.00  0.00    +0.000 A 
ATOM     21  C   UNL     1      36.752  48.516  36.189  0.00  0.00    +0.000 A 
ATOM     22  C   UNL     1      34.030  49.108  36.315  0.00  0.00    +0.000 A 
ATOM     23  C   UNL     1      35.804  47.538  35.871  0.00  0.00    +0.000 A 
ATOM     24  C   UNL     1      34.442  47.835  35.931  0.00  0.00    +0.000 A 
ENDBRANCH  17  19
ENDBRANCH   1  17
TORSDOF 5
ENDMDL
MODEL 2
REMARK VINA RESULT:      -7.9     26.277     28.642
REMARK  Name = 9836052
REMARK  5 active torsions:
REMARK  status: ('A' for Active; 'I' for Inactive)
REMARK    1  A    between atoms: N_5  and  C_11
REMARK    2  A    between atoms: C_11  and  C_12
REMARK    3  A    between atoms: C_11  and  C_15
REMARK    4  A    between atoms: C_12  and  C_14
REMARK    5  A    between atoms: C_15  and  C_17
REMARK                            x       y       z     vdW  Elec       q    Type
REMARK                         _______ _______ _______ _____ _____    ______ ____
ROOT
ATOM      1  C   UNL     1      46.459  74.836  49.475  0.00  0.00    +0.000 C 
ENDROOT
BRANCH   1   2
ATOM      2  N   UNL     1      44.987  74.744  49.338  0.00  0.00    +0.000 NA
ATOM      3  H   UNL     1      44.550  75.579  49.729  0.00  0.00    +0.000 HD
ATOM      4  H   UNL     1      44.742  74.742  48.348  0.00  0.00    +0.000 HD
ENDBRANCH   1   2
BRANCH   1   5
ATOM      5  C   UNL     1      47.018  73.462  49.055  0.00  0.00    +0.000 C 
BRANCH   5  15
ATOM      6  O   UNL     1      45.746  72.266  50.720  0.00  0.00    +0.000 OA
ATOM      7  N   UNL     1      47.679  71.264  50.001  0.00  0.00    +0.000 N 
ATOM      8  N   UNL     1      49.908  69.920  50.930  0.00  0.00    +0.000 N 
ATOM      9  N   UNL     1      51.208  70.421  49.254  0.00  0.00    +0.000 NA
ATOM     10  N   UNL     1      51.951  69.758  50.208  0.00  0.00    +0.000 NA
ATOM     11  C   UNL     1      47.474  70.093  50.865  0.00  0.00    +0.000 C 
ATOM     12  C   UNL     1      48.800  71.157  49.052  0.00  0.00    +0.000 C 
ATOM     13  C   UNL     1      48.709  69.841  51.732  0.00  0.00    +0.000 C 
ATOM     14  C   UNL     1      49.976  70.525  49.705  0.00  0.00    +0.000 A 
ATOM     15  C   UNL     1      46.735  72.291  49.989  0.00  0.00    +0.000 C 
ATOM     16  C   UNL     1      51.156  69.474  51.215  0.00  0.00    +0.000 A 
ENDBRANCH   5  15
ENDBRANCH   1   5
BRANCH   1  17
ATOM     17  C   UNL     1      46.998  76.007  48.612  0.00  0.00    +0.000 C 
BRANCH  17  19
ATOM     18  F   UNL     1      48.225  78.281  47.371  0.00  0.00    +0.000 F 
ATOM     19  C   UNL     1      48.106  76.830  49.244  0.00  0.00    +0.000 A 
ATOM     20  C   UNL     1      48.657  77.939  48.593  0.00  0.00    +0.000 A 
ATOM     21  C   UNL     1      48.592  76.504  50.522  0.00  0.00    +0.000 A 
ATOM     22  C   UNL     1      49.656  78.709  49.186  0.00  0.00    +0.000 A 
ATOM     23  C   UNL     1      49.594  77.273  51.122  0.00  0.00    +0.000 A 
ATOM     24  C   UNL     1      50.124  78.378  50.456  0.00  0.00    +0.000 A 
ENDBRANCH  17  19
ENDBRANCH   1  17
TORSDOF 5
ENDMDL
MODEL 3
REMARK VINA RESULT:      -7.5     29.832     32.032
REMARK  Name = 9836052
REMARK  5 active torsions:
REMARK  status: ('A' for Active; 'I' for Inactive)
REMARK    1  A    between atoms: N_5  and  C_11
REMARK    2  A    between atoms: C_11  and  C_12
REMARK    3  A    between atoms: C_11  and  C_15
REMARK    4  A    between atoms: C_12  and  C_14
REMARK    5  A    between atoms: C_15  and  C_17
REMARK                            x       y       z     vdW  Elec       q    Type
REMARK                         _______ _______ _______ _____ _____    ______ ____
ROOT
ATOM      1  C   UNL     1      47.146  79.449  52.497  0.00  0.00    +0.000 C 
ENDROOT
BRANCH   1   2
ATOM      2  N   UNL     1      46.698  80.080  53.760  0.00  0.00    +0.000 NA
ATOM      3  H   UNL     1      46.196  79.399  54.329  0.00  0.00    +0.000 HD
ATOM      4  H   UNL     1      47.516  80.349  54.309  0.00  0.00    +0.000 HD
ENDBRANCH   1   2
BRANCH   1   5
ATOM      5  C   UNL     1      45.866  79.043  51.740  0.00  0.00    +0.000 C 
BRANCH   5  15
ATOM      6  O   UNL     1      44.522  77.912  53.393  0.00  0.00    +0.000 OA
ATOM      7  N   UNL     1      45.067  76.704  51.523  0.00  0.00    +0.000 N 
ATOM      8  N   UNL     1      45.950  74.208  50.725  0.00  0.00    +0.000 N 
ATOM      9  N   UNL     1      46.845  74.858  48.847  0.00  0.00    +0.000 NA
ATOM     10  N   UNL     1      47.135  73.523  49.038  0.00  0.00    +0.000 NA
ATOM     11  C   UNL     1      44.324  75.523  51.987  0.00  0.00    +0.000 C 
ATOM     12  C   UNL     1      45.585  76.620  50.147  0.00  0.00    +0.000 C 
ATOM     13  C   UNL     1      45.219  74.282  51.971  0.00  0.00    +0.000 C 
ATOM     14  C   UNL     1      46.138  75.267  49.880  0.00  0.00    +0.000 A 
ATOM     15  C   UNL     1      45.082  77.861  52.300  0.00  0.00    +0.000 C 
ATOM     16  C   UNL     1      46.599  73.152  50.179  0.00  0.00    +0.000 A 
ENDBRANCH   5  15
ENDBRANCH   1   5
BRANCH   1  17
ATOM     17  C   UNL     1      48.042  80.436  51.702  0.00  0.00    +0.000 C 
BRANCH  17  19
ATOM     18  F   UNL     1      50.894  80.184  51.559  0.00  0.00    +0.000 F 
ATOM     19  C   UNL     1      48.788  79.838  50.523  0.00  0.00    +0.000 A 
ATOM     20  C   UNL     1      50.182  79.731  50.518  0.00  0.00    +0.000 A 
ATOM     21  C   UNL     1      48.082  79.353  49.409  0.00  0.00    +0.000 A 
ATOM     22  C   UNL     1      50.864  79.157  49.445  0.00  0.00    +0.000 A 
ATOM     23  C   UNL     1      48.760  78.777  48.331  0.00  0.00    +0.000 A 
ATOM     24  C   UNL     1      50.151  78.675  48.349  0.00  0.00    +0.000 A 
ENDBRANCH  17  19
ENDBRANCH   1  17
TORSDOF 5
ENDMDL
MODEL 4
REMARK VINA RESULT:      -7.4     27.357     29.738
REMARK  Name = 9836052
REMARK  5 active torsions:
REMARK  status: ('A' for Active; 'I' for Inactive)
REMARK    1  A    between atoms: N_5  and  C_11
REMARK    2  A    between atoms: C_11  and  C_12
REMARK    3  A    between atoms: C_11  and  C_15
REMARK    4  A    between atoms: C_12  and  C_14
REMARK    5  A    between atoms: C_15  and  C_17
REMARK                            x       y       z     vdW  Elec       q    Type
REMARK                         _______ _______ _______ _____ _____    ______ ____
ROOT
ATOM      1  C   UNL     1      46.846  76.533  49.440  0.00  0.00    +0.000 C 
ENDROOT
BRANCH   1   2
ATOM      2  N   UNL     1      45.912  75.956  48.445  0.00  0.00    +0.000 NA
ATOM      3  H   UNL     1      46.067  76.387  47.534  0.00  0.00    +0.000 HD
ATOM      4  H   UNL     1      46.123  74.965  48.322  0.00  0.00    +0.000 HD
ENDBRANCH   1   2
BRANCH   1   5
ATOM      5  C   UNL     1      47.460  75.339  50.199  0.00  0.00    +0.000 C 
BRANCH   5  15
ATOM      6  O   UNL     1      45.633  74.552  51.564  0.00  0.00    +0.000 OA
ATOM      7  N   UNL     1      46.649  72.993  50.225  0.00  0.00    +0.000 N 
ATOM      8  N   UNL     1      47.607  70.400  50.246  0.00  0.00    +0.000 N 
ATOM      9  N   UNL     1      49.050  70.663  48.634  0.00  0.00    +0.000 NA
ATOM     10  N   UNL     1      49.205  69.400  49.166  0.00  0.00    +0.000 NA
ATOM     11  C   UNL     1      45.746  71.922  50.670  0.00  0.00    +0.000 C 
ATOM     12  C   UNL     1      47.548  72.637  49.114  0.00  0.00    +0.000 C 
ATOM     13  C   UNL     1      46.545  70.718  51.173  0.00  0.00    +0.000 C 
ATOM     14  C   UNL     1      48.089  71.265  49.302  0.00  0.00    +0.000 A 
ATOM     15  C   UNL     1      46.489  74.286  50.722  0.00  0.00    +0.000 C 
ATOM     16  C   UNL     1      48.337  69.263  50.143  0.00  0.00    +0.000 A 
ENDBRANCH   5  15
ENDBRANCH   1   5
BRANCH   1  17
ATOM     17  C   UNL     1      47.903  77.413  48.724  0.00  0.00    +0.000 C 
BRANCH  17  19
ATOM     18  F   UNL     1      50.638  78.181  48.343  0.00  0.00    +0.000 F 
ATOM     19  C   UNL     1      48.644  78.397  49.610  0.00  0.00    +0.000 A 
ATOM     20  C   UNL     1      49.978  78.742  49.365  0.00  0.00    +0.000 A 
ATOM     21  C   UNL     1      47.992  79.006  50.696  0.00  0.00    +0.000 A 
ATOM     22  C   UNL     1      50.649  79.666  50.165  0.00  0.00    +0.000 A 
ATOM     23  C   UNL     1      48.661  79.933  51.501  0.00  0.00    +0.000 A 
ATOM     24  C   UNL     1      49.989  80.267  51.234  0.00  0.00    +0.000 A 
ENDBRANCH  17  19
ENDBRANCH   1  17
TORSDOF 5
ENDMDL
MODEL 5
REMARK VINA RESULT:      -7.3     28.590     30.871
REMARK  Name = 9836052
REMARK  5 active torsions:
REMARK  status: ('A' for Active; 'I' for Inactive)
REMARK    1  A    between atoms: N_5  and  C_11
REMARK    2  A    between atoms: C_11  and  C_12
REMARK    3  A    between atoms: C_11  and  C_15
REMARK    4  A    between atoms: C_12  and  C_14
REMARK    5  A    between atoms: C_15  and  C_17
REMARK                            x       y       z     vdW  Elec       q    Type
REMARK                         _______ _______ _______ _____ _____    ______ ____
ROOT
ATOM      1  C   UNL     1      46.557  77.892  51.349  0.00  0.00    +0.000 C 
ENDROOT
BRANCH   1   2
ATOM      2  N   UNL     1      46.372  77.994  52.815  0.00  0.00    +0.000 NA
ATOM      3  H   UNL     1      47.070  78.624  53.209  0.00  0.00    +0.000 HD
ATOM      4  H   UNL     1      45.468  78.427  53.010  0.00  0.00    +0.000 HD
ENDBRANCH   1   2
BRANCH   1   5
ATOM      5  C   UNL     1      45.207  77.416  50.776  0.00  0.00    +0.000 C 
BRANCH   5  15
ATOM      6  O   UNL     1      43.887  76.294  52.454  0.00  0.00    +0.000 OA
ATOM      7  N   UNL     1      44.841  74.962  50.850  0.00  0.00    +0.000 N 
ATOM      8  N   UNL     1      46.216  72.585  50.531  0.00  0.00    +0.000 N 
ATOM      9  N   UNL     1      47.204  73.126  48.666  0.00  0.00    +0.000 NA
ATOM     10  N   UNL     1      47.688  71.905  49.086  0.00  0.00    +0.000 NA
ATOM     11  C   UNL     1      44.256  73.740  51.420  0.00  0.00    +0.000 C 
ATOM     12  C   UNL     1      45.524  74.789  49.557  0.00  0.00    +0.000 C 
ATOM     13  C   UNL     1      45.342  72.693  51.678  0.00  0.00    +0.000 C 
ATOM     14  C   UNL     1      46.323  73.536  49.554  0.00  0.00    +0.000 A 
ATOM     15  C   UNL     1      44.572  76.198  51.437  0.00  0.00    +0.000 C 
ATOM     16  C   UNL     1      47.091  71.600  50.216  0.00  0.00    +0.000 A 
ENDBRANCH   5  15
ENDBRANCH   1   5
BRANCH   1  17
ATOM     17  C   UNL     1      47.018  79.259  50.778  0.00  0.00    +0.000 C 
BRANCH  17  19
ATOM     18  F   UNL     1      47.964  78.163  48.304  0.00  0.00    +0.000 F 
ATOM     19  C   UNL     1      48.461  79.321  50.314  0.00  0.00    +0.000 A 
ATOM     20  C   UNL     1      48.860  78.778  49.088  0.00  0.00    +0.000 A 
ATOM     21  C   UNL     1      49.435  79.954  51.107  0.00  0.00    +0.000 A 
ATOM     22  C   UNL     1      50.182  78.860  48.652  0.00  0.00    +0.000 A 
ATOM     23  C   UNL     1      50.762  80.038  50.674  0.00  0.00    +0.000 A 
ATOM     24  C   UNL     1      51.136  79.495  49.444  0.00  0.00    +0.000 A 
ENDBRANCH  17  19
ENDBRANCH   1  17
TORSDOF 5
ENDMDL
MODEL 6
REMARK VINA RESULT:      -7.2     16.848     18.425
REMARK  Name = 9836052
REMARK  5 active torsions:
REMARK  status: ('A' for Active; 'I' for Inactive)
REMARK    1  A    between atoms: N_5  and  C_11
REMARK    2  A    between atoms: C_11  and  C_12
REMARK    3  A    between atoms: C_11  and  C_15
REMARK    4  A    between atoms: C_12  and  C_14
REMARK    5  A    between atoms: C_15  and  C_17
REMARK                            x       y       z     vdW  Elec       q    Type
REMARK                         _______ _______ _______ _____ _____    ______ ____
ROOT
ATOM      1  C   UNL     1      30.074  63.637  37.808  0.00  0.00    +0.000 C 
ENDROOT
BRANCH   1   2
ATOM      2  N   UNL     1      31.507  63.941  38.030  0.00  0.00    +0.000 NA
ATOM      3  H   UNL     1      31.631  64.382  38.941  0.00  0.00    +0.000 HD
ATOM      4  H   UNL     1      32.033  63.068  38.072  0.00  0.00    +0.000 HD
ENDBRANCH   1   2
BRANCH   1   5
ATOM      5  C   UNL     1      29.281  64.689  38.609  0.00  0.00    +0.000 C 
BRANCH   5  15
ATOM      6  O   UNL     1      30.662  66.629  38.993  0.00  0.00    +0.000 OA
ATOM      7  N   UNL     1      30.184  65.340  40.827  0.00  0.00    +0.000 N 
ATOM      8  N   UNL     1      31.356  64.226  43.069  0.00  0.00    +0.000 N 
ATOM      9  N   UNL     1      29.927  62.597  43.304  0.00  0.00    +0.000 NA
ATOM     10  N   UNL     1      30.942  62.433  44.224  0.00  0.00    +0.000 NA
ATOM     11  C   UNL     1      30.937  66.224  41.729  0.00  0.00    +0.000 C 
ATOM     12  C   UNL     1      29.410  64.277  41.490  0.00  0.00    +0.000 C 
ATOM     13  C   UNL     1      31.964  65.423  42.533  0.00  0.00    +0.000 C 
ATOM     14  C   UNL     1      30.194  63.678  42.601  0.00  0.00    +0.000 A 
ATOM     15  C   UNL     1      30.091  65.651  39.471  0.00  0.00    +0.000 C 
ATOM     16  C   UNL     1      31.799  63.415  44.061  0.00  0.00    +0.000 A 
ENDBRANCH   5  15
ENDBRANCH   1   5
BRANCH   1  17
ATOM     17  C   UNL     1      29.759  63.656  36.289  0.00  0.00    +0.000 C 
BRANCH  17  19
ATOM     18  F   UNL     1      27.040  64.188  35.555  0.00  0.00    +0.000 F 
ATOM     19  C   UNL     1      29.268  64.982  35.740  0.00  0.00    +0.000 A 
ATOM     20  C   UNL     1      27.923  65.185  35.411  0.00  0.00    +0.000 A 
ATOM     21  C   UNL     1      30.160  66.055  35.568  0.00  0.00    +0.000 A 
ATOM     22  C   UNL     1      27.469  66.413  34.931  0.00  0.00    +0.000 A 
ATOM     23  C   UNL     1      29.709  67.288  35.088  0.00  0.00    +0.000 A 
ATOM     24  C   UNL     1      28.363  67.469  34.772  0.00  0.00    +0.000 A 
ENDBRANCH  17  19
ENDBRANCH   1  17
TORSDOF 5
ENDMDL
MODEL 7
REMARK VINA RESULT:      -6.8     17.192     18.325
REMARK  Name = 9836052
REMARK  5 active torsions:
REMARK  status: ('A' for Active; 'I' for Inactive)
REMARK    1  A    between atoms: N_5  and  C_11
REMARK    2  A    between atoms: C_11  and  C_12
REMARK    3  A    between atoms: C_11  and  C_15
REMARK    4  A    between atoms: C_12  and  C_14
REMARK    5  A    between atoms: C_15  and  C_17
REMARK                            x       y       z     vdW  Elec       q    Type
REMARK                         _______ _______ _______ _____ _____    ______ ____
ROOT
ATOM      1  C   UNL     1      29.079  64.357  39.108  0.00  0.00    +0.000 C 
ENDROOT
BRANCH   1   2
ATOM      2  N   UNL     1      28.174  63.268  39.545  0.00  0.00    +0.000 NA
ATOM      3  H   UNL     1      27.679  63.548  40.392  0.00  0.00    +0.000 HD
ATOM      4  H   UNL     1      27.453  63.127  38.837  0.00  0.00    +0.000 HD
ENDBRANCH   1   2
BRANCH   1   5
ATOM      5  C   UNL     1      30.064  64.592  40.271  0.00  0.00    +0.000 C 
BRANCH   5  15
ATOM      6  O   UNL     1      28.451  65.664  41.709  0.00  0.00    +0.000 OA
ATOM      7  N   UNL     1      30.131  64.502  42.750  0.00  0.00    +0.000 N 
ATOM      8  N   UNL     1      31.921  64.678  44.849  0.00  0.00    +0.000 N 
ATOM      9  N   UNL     1      33.398  63.305  44.022  0.00  0.00    +0.000 NA
ATOM     10  N   UNL     1      33.906  63.859  45.179  0.00  0.00    +0.000 NA
ATOM     11  C   UNL     1      29.604  64.807  44.089  0.00  0.00    +0.000 C 
ATOM     12  C   UNL     1      31.248  63.543  42.718  0.00  0.00    +0.000 C 
ATOM     13  C   UNL     1      30.692  65.430  44.966  0.00  0.00    +0.000 C 
ATOM     14  C   UNL     1      32.201  63.816  43.824  0.00  0.00    +0.000 A 
ATOM     15  C   UNL     1      29.458  64.964  41.620  0.00  0.00    +0.000 C 
ATOM     16  C   UNL     1      33.010  64.692  45.656  0.00  0.00    +0.000 A 
ENDBRANCH   5  15
ENDBRANCH   1   5
BRANCH   1  17
ATOM     17  C   UNL     1      29.779  63.961  37.782  0.00  0.00    +0.000 C 
BRANCH  17  19
ATOM     18  F   UNL     1      31.323  65.838  36.262  0.00  0.00    +0.000 F 
ATOM     19  C   UNL     1      29.275  64.672  36.539  0.00  0.00    +0.000 A 
ATOM     20  C   UNL     1      30.083  65.570  35.832  0.00  0.00    +0.000 A 
ATOM     21  C   UNL     1      27.980  64.424  36.055  0.00  0.00    +0.000 A 
ATOM     22  C   UNL     1      29.627  66.202  34.675  0.00  0.00    +0.000 A 
ATOM     23  C   UNL     1      27.518  65.055  34.896  0.00  0.00    +0.000 A 
ATOM     24  C   UNL     1      28.343  65.942  34.203  0.00  0.00    +0.000 A 
ENDBRANCH  17  19
ENDBRANCH   1  17
TORSDOF 5
ENDMDL
MODEL 8
REMARK VINA RESULT:      -6.6     22.798     24.905
REMARK  Name = 9836052
REMARK  5 active torsions:
REMARK  status: ('A' for Active; 'I' for Inactive)
REMARK    1  A    between atoms: N_5  and  C_11
REMARK    2  A    between atoms: C_11  and  C_12
REMARK    3  A    between atoms: C_11  and  C_15
REMARK    4  A    between atoms: C_12  and  C_14
REMARK    5  A    between atoms: C_15  and  C_17
REMARK                            x       y       z     vdW  Elec       q    Type
REMARK                         _______ _______ _______ _____ _____    ______ ____
ROOT
ATOM      1  C   UNL     1      52.733  70.658  37.407  0.00  0.00    +0.000 C 
ENDROOT
BRANCH   1   2
ATOM      2  N   UNL     1      53.223  71.904  36.773  0.00  0.00    +0.000 NA
ATOM      3  H   UNL     1      53.399  71.742  35.782  0.00  0.00    +0.000 HD
ATOM      4  H   UNL     1      52.489  72.611  36.812  0.00  0.00    +0.000 HD
ENDBRANCH   1   2
BRANCH   1   5
ATOM      5  C   UNL     1      53.984  69.818  37.734  0.00  0.00    +0.000 C 
BRANCH   5  15
ATOM      6  O   UNL     1      55.221  69.591  35.675  0.00  0.00    +0.000 OA
ATOM      7  N   UNL     1      56.294  70.660  37.396  0.00  0.00    +0.000 N 
ATOM      8  N   UNL     1      58.733  70.792  38.691  0.00  0.00    +0.000 N 
ATOM      9  N   UNL     1      57.956  71.516  40.594  0.00  0.00    +0.000 NA
ATOM     10  N   UNL     1      59.304  71.260  40.734  0.00  0.00    +0.000 NA
ATOM     11  C   UNL     1      57.499  70.897  36.587  0.00  0.00    +0.000 C 
ATOM     12  C   UNL     1      56.282  71.318  38.713  0.00  0.00    +0.000 C 
ATOM     13  C   UNL     1      58.743  70.374  37.307  0.00  0.00    +0.000 C 
ATOM     14  C   UNL     1      57.617  71.218  39.358  0.00  0.00    +0.000 A 
ATOM     15  C   UNL     1      55.197  70.012  36.830  0.00  0.00    +0.000 C 
ATOM     16  C   UNL     1      59.753  70.813  39.583  0.00  0.00    +0.000 A 
ENDBRANCH   5  15
ENDBRANCH   1   5
BRANCH   1  17
ATOM     17  C   UNL     1      51.880  71.001  38.657  0.00  0.00    +0.000 C 
BRANCH  17  19
ATOM     18  F   UNL     1      49.824  69.104  38.032  0.00  0.00    +0.000 F 
ATOM     19  C   UNL     1      50.434  71.370  38.381  0.00  0.00    +0.000 A 
ATOM     20  C   UNL     1      49.472  70.396  38.093  0.00  0.00    +0.000 A 
ATOM     21  C   UNL     1      50.022  72.713  38.431  0.00  0.00    +0.000 A 
ATOM     22  C   UNL     1      48.139  70.735  37.866  0.00  0.00    +0.000 A 
ATOM     23  C   UNL     1      48.686  73.058  38.205  0.00  0.00    +0.000 A 
ATOM     24  C   UNL     1      47.742  72.069  37.926  0.00  0.00    +0.000 A 
ENDBRANCH  17  19
ENDBRANCH   1  17
TORSDOF 5
ENDMDL
MODEL 9
REMARK VINA RESULT:      -6.1     17.761     19.523
REMARK  Name = 9836052
REMARK  5 active torsions:
REMARK  status: ('A' for Active; 'I' for Inactive)
REMARK    1  A    between atoms: N_5  and  C_11
REMARK    2  A    between atoms: C_11  and  C_12
REMARK    3  A    between atoms: C_11  and  C_15
REMARK    4  A    between atoms: C_12  and  C_14
REMARK    5  A    between atoms: C_15  and  C_17
REMARK                            x       y       z     vdW  Elec       q    Type
REMARK                         _______ _______ _______ _____ _____    ______ ____
ROOT
ATOM      1  C   UNL     1      29.598  68.411  34.758  0.00  0.00    +0.000 C 
ENDROOT
BRANCH   1   2
ATOM      2  N   UNL     1      29.048  69.545  33.979  0.00  0.00    +0.000 NA
ATOM      3  H   UNL     1      29.169  69.371  32.982  0.00  0.00    +0.000 HD
ATOM      4  H   UNL     1      28.040  69.598  34.130  0.00  0.00    +0.000 HD
ENDBRANCH   1   2
BRANCH   1   5
ATOM      5  C   UNL     1      29.013  68.540  36.179  0.00  0.00    +0.000 C 
BRANCH   5  15
ATOM      6  O   UNL     1      30.880  69.699  37.174  0.00  0.00    +0.000 OA
ATOM      7  N   UNL     1      29.867  68.101  38.468  0.00  0.00    +0.000 N 
ATOM      8  N   UNL     1      30.436  65.999  40.171  0.00  0.00    +0.000 N 
ATOM      9  N   UNL     1      28.562  64.928  39.866  0.00  0.00    +0.000 NA
ATOM     10  N   UNL     1      29.390  64.156  40.654  0.00  0.00    +0.000 NA
ATOM     11  C   UNL     1      30.770  68.350  39.601  0.00  0.00    +0.000 C 
ATOM     12  C   UNL     1      28.749  67.183  38.744  0.00  0.00    +0.000 C 
ATOM     13  C   UNL     1      31.426  67.047  40.064  0.00  0.00    +0.000 C 
ATOM     14  C   UNL     1      29.209  66.035  39.568  0.00  0.00    +0.000 A 
ATOM     15  C   UNL     1      29.997  68.853  37.301  0.00  0.00    +0.000 C 
ATOM     16  C   UNL     1      30.518  64.811  40.818  0.00  0.00    +0.000 A 
ENDBRANCH   5  15
ENDBRANCH   1   5
BRANCH   1  17
ATOM     17  C   UNL     1      29.237  67.070  34.066  0.00  0.00    +0.000 C 
BRANCH  17  19
ATOM     18  F   UNL     1      31.456  66.057  35.572  0.00  0.00    +0.000 F 
ATOM     19  C   UNL     1      29.168  65.860  34.980  0.00  0.00    +0.000 A 
ATOM     20  C   UNL     1      30.284  65.421  35.699  0.00  0.00    +0.000 A 
ATOM     21  C   UNL     1      27.959  65.161  35.140  0.00  0.00    +0.000 A 
ATOM     22  C   UNL     1      30.210  64.325  36.558  0.00  0.00    +0.000 A 
ATOM     23  C   UNL     1      27.880  64.061  36.001  0.00  0.00    +0.000 A 
ATOM     24  C   UNL     1      29.005  63.644  36.713  0.00  0.00    +0.000 A 
ENDBRANCH  17  19
ENDBRANCH   1  17
TORSDOF 5
ENDMDL
